version 3
run General-1-20220605-16:52:34-732256
attr configname General
attr datetime 20220605-16:52:34
attr datetimef 20220605-165234
attr experiment General
attr inifile aloha.ini
attr iterationvars $0=0.2
attr iterationvarsd 0.2
attr iterationvarsf 0.2-
attr measurement $0=0.2
attr network Aloha
attr processid 732256
attr repetition 0
attr replication #0
attr resultdir results
attr runnumber 1
attr seedset 1
config network Aloha
config cmdenv-performance-display false
config sim-time-limit 100000s
config **.x "uniform(0m, 200m)"
config **.y "uniform(0m, 200m)"
config *.numHosts 1000
config **.packet_size 1B
config **.txrate 1000Bps
config **.arrrate 0.2

par Aloha.host[0] typename "\"Host\""
par Aloha.host[0] arrrate 0.2
par Aloha.host[0] packet_size 1B
attr unit B
par Aloha.host[0] x 83.4044m
attr unit m
par Aloha.host[0] y 199.437m
attr unit m
par Aloha.host[0] txrate 1000Bps
attr unit Bps
par Aloha.host[1] typename "\"Host\""
par Aloha.host[1] arrrate 0.2
par Aloha.host[1] packet_size 1B
attr unit B
par Aloha.host[1] x 144.065m
attr unit m
par Aloha.host[1] y 186.511m
attr unit m
par Aloha.host[1] txrate 1000Bps
attr unit Bps
par Aloha.host[2] typename "\"Host\""
par Aloha.host[2] arrrate 0.2
par Aloha.host[2] packet_size 1B
attr unit B
par Aloha.host[2] x 0.0228762m
attr unit m
par Aloha.host[2] y 25.6249m
attr unit m
par Aloha.host[2] txrate 1000Bps
attr unit Bps
par Aloha.host[3] typename "\"Host\""
par Aloha.host[3] arrrate 0.2
par Aloha.host[3] packet_size 1B
attr unit B
par Aloha.host[3] x 60.4665m
attr unit m
par Aloha.host[3] y 199.808m
attr unit m
par Aloha.host[3] txrate 1000Bps
attr unit Bps
par Aloha.host[4] typename "\"Host\""
par Aloha.host[4] arrrate 0.2
par Aloha.host[4] packet_size 1B
attr unit B
par Aloha.host[4] x 29.3512m
attr unit m
par Aloha.host[4] y 47.2178m
attr unit m
par Aloha.host[4] txrate 1000Bps
attr unit Bps
par Aloha.host[5] typename "\"Host\""
par Aloha.host[5] arrrate 0.2
par Aloha.host[5] packet_size 1B
attr unit B
par Aloha.host[5] x 18.4677m
attr unit m
par Aloha.host[5] y 79.3161m
attr unit m
par Aloha.host[5] txrate 1000Bps
attr unit Bps
par Aloha.host[6] typename "\"Host\""
par Aloha.host[6] arrrate 0.2
par Aloha.host[6] packet_size 1B
attr unit B
par Aloha.host[6] x 37.252m
attr unit m
par Aloha.host[6] y 77.5821m
attr unit m
par Aloha.host[6] txrate 1000Bps
attr unit Bps
par Aloha.host[7] typename "\"Host\""
par Aloha.host[7] arrrate 0.2
par Aloha.host[7] packet_size 1B
attr unit B
par Aloha.host[7] x 69.1121m
attr unit m
par Aloha.host[7] y 133.949m
attr unit m
par Aloha.host[7] txrate 1000Bps
attr unit Bps
par Aloha.host[8] typename "\"Host\""
par Aloha.host[8] arrrate 0.2
par Aloha.host[8] packet_size 1B
attr unit B
par Aloha.host[8] x 79.3535m
attr unit m
par Aloha.host[8] y 187.108m
attr unit m
par Aloha.host[8] txrate 1000Bps
attr unit Bps
par Aloha.host[9] typename "\"Host\""
par Aloha.host[9] arrrate 0.2
par Aloha.host[9] packet_size 1B
attr unit B
par Aloha.host[9] x 107.763m
attr unit m
par Aloha.host[9] y 169.262m
attr unit m
par Aloha.host[9] txrate 1000Bps
attr unit Bps
par Aloha.host[10] typename "\"Host\""
par Aloha.host[10] arrrate 0.2
par Aloha.host[10] packet_size 1B
attr unit B
par Aloha.host[10] x 83.8389m
attr unit m
par Aloha.host[10] y 62.6547m
attr unit m
par Aloha.host[10] txrate 1000Bps
attr unit Bps
par Aloha.host[11] typename "\"Host\""
par Aloha.host[11] arrrate 0.2
par Aloha.host[11] packet_size 1B
attr unit B
par Aloha.host[11] x 137.044m
attr unit m
par Aloha.host[11] y 104.91m
attr unit m
par Aloha.host[11] txrate 1000Bps
attr unit Bps
par Aloha.host[12] typename "\"Host\""
par Aloha.host[12] arrrate 0.2
par Aloha.host[12] packet_size 1B
attr unit B
par Aloha.host[12] x 40.8904m
attr unit m
par Aloha.host[12] y 88.6906m
attr unit m
par Aloha.host[12] txrate 1000Bps
attr unit Bps
par Aloha.host[13] typename "\"Host\""
par Aloha.host[13] arrrate 0.2
par Aloha.host[13] packet_size 1B
attr unit B
par Aloha.host[13] x 175.623m
attr unit m
par Aloha.host[13] y 45.9154m
attr unit m
par Aloha.host[13] txrate 1000Bps
attr unit Bps
par Aloha.host[14] typename "\"Host\""
par Aloha.host[14] arrrate 0.2
par Aloha.host[14] packet_size 1B
attr unit B
par Aloha.host[14] x 5.47752m
attr unit m
par Aloha.host[14] y 106.883m
attr unit m
par Aloha.host[14] txrate 1000Bps
attr unit Bps
par Aloha.host[15] typename "\"Host\""
par Aloha.host[15] arrrate 0.2
par Aloha.host[15] packet_size 1B
attr unit B
par Aloha.host[15] x 134.094m
attr unit m
par Aloha.host[15] y 182.792m
attr unit m
par Aloha.host[15] txrate 1000Bps
attr unit Bps
par Aloha.host[16] typename "\"Host\""
par Aloha.host[16] arrrate 0.2
par Aloha.host[16] packet_size 1B
attr unit B
par Aloha.host[16] x 83.461m
attr unit m
par Aloha.host[16] y 91.441m
attr unit m
par Aloha.host[16] txrate 1000Bps
attr unit Bps
par Aloha.host[17] typename "\"Host\""
par Aloha.host[17] arrrate 0.2
par Aloha.host[17] packet_size 1B
attr unit B
par Aloha.host[17] x 111.738m
attr unit m
par Aloha.host[17] y 86.1397m
attr unit m
par Aloha.host[17] txrate 1000Bps
attr unit Bps
par Aloha.host[18] typename "\"Host\""
par Aloha.host[18] arrrate 0.2
par Aloha.host[18] packet_size 1B
attr unit B
par Aloha.host[18] x 28.0774m
attr unit m
par Aloha.host[18] y 187.826m
attr unit m
par Aloha.host[18] txrate 1000Bps
attr unit Bps
par Aloha.host[19] typename "\"Host\""
par Aloha.host[19] arrrate 0.2
par Aloha.host[19] packet_size 1B
attr unit B
par Aloha.host[19] x 39.6203m
attr unit m
par Aloha.host[19] y 155.678m
attr unit m
par Aloha.host[19] txrate 1000Bps
attr unit Bps
par Aloha.host[20] typename "\"Host\""
par Aloha.host[20] arrrate 0.2
par Aloha.host[20] packet_size 1B
attr unit B
par Aloha.host[20] x 160.149m
attr unit m
par Aloha.host[20] y 143.194m
attr unit m
par Aloha.host[20] txrate 1000Bps
attr unit Bps
par Aloha.host[21] typename "\"Host\""
par Aloha.host[21] arrrate 0.2
par Aloha.host[21] packet_size 1B
attr unit B
par Aloha.host[21] x 193.652m
attr unit m
par Aloha.host[21] y 160.552m
attr unit m
par Aloha.host[21] txrate 1000Bps
attr unit Bps
par Aloha.host[22] typename "\"Host\""
par Aloha.host[22] arrrate 0.2
par Aloha.host[22] packet_size 1B
attr unit B
par Aloha.host[22] x 62.6848m
attr unit m
par Aloha.host[22] y 18.5602m
attr unit m
par Aloha.host[22] txrate 1000Bps
attr unit Bps
par Aloha.host[23] typename "\"Host\""
par Aloha.host[23] arrrate 0.2
par Aloha.host[23] packet_size 1B
attr unit B
par Aloha.host[23] x 138.465m
attr unit m
par Aloha.host[23] y 103.631m
attr unit m
par Aloha.host[23] txrate 1000Bps
attr unit Bps
par Aloha.host[24] typename "\"Host\""
par Aloha.host[24] arrrate 0.2
par Aloha.host[24] packet_size 1B
attr unit B
par Aloha.host[24] x 175.278m
attr unit m
par Aloha.host[24] y 173.004m
attr unit m
par Aloha.host[24] txrate 1000Bps
attr unit Bps
par Aloha.host[25] typename "\"Host\""
par Aloha.host[25] arrrate 0.2
par Aloha.host[25] packet_size 1B
attr unit B
par Aloha.host[25] x 178.921m
attr unit m
par Aloha.host[25] y 165.829m
attr unit m
par Aloha.host[25] txrate 1000Bps
attr unit Bps
par Aloha.host[26] typename "\"Host\""
par Aloha.host[26] arrrate 0.2
par Aloha.host[26] packet_size 1B
attr unit B
par Aloha.host[26] x 17.0088m
attr unit m
par Aloha.host[26] y 165.921m
attr unit m
par Aloha.host[26] txrate 1000Bps
attr unit Bps
par Aloha.host[27] typename "\"Host\""
par Aloha.host[27] arrrate 0.2
par Aloha.host[27] packet_size 1B
attr unit B
par Aloha.host[27] x 7.81096m
attr unit m
par Aloha.host[27] y 54.61m
attr unit m
par Aloha.host[27] txrate 1000Bps
attr unit Bps
par Aloha.host[28] typename "\"Host\""
par Aloha.host[28] arrrate 0.2
par Aloha.host[28] packet_size 1B
attr unit B
par Aloha.host[28] x 33.9661m
attr unit m
par Aloha.host[28] y 11.8486m
attr unit m
par Aloha.host[28] txrate 1000Bps
attr unit Bps
par Aloha.host[29] typename "\"Host\""
par Aloha.host[29] arrrate 0.2
par Aloha.host[29] packet_size 1B
attr unit B
par Aloha.host[29] x 175.629m
attr unit m
par Aloha.host[29] y 134.106m
attr unit m
par Aloha.host[29] txrate 1000Bps
attr unit Bps
par Aloha.host[30] typename "\"Host\""
par Aloha.host[30] arrrate 0.2
par Aloha.host[30] packet_size 1B
attr unit B
par Aloha.host[30] x 19.6694m
attr unit m
par Aloha.host[30] y 118.613m
attr unit m
par Aloha.host[30] txrate 1000Bps
attr unit Bps
par Aloha.host[31] typename "\"Host\""
par Aloha.host[31] arrrate 0.2
par Aloha.host[31] packet_size 1B
attr unit B
par Aloha.host[31] x 84.2215m
attr unit m
par Aloha.host[31] y 134.331m
attr unit m
par Aloha.host[31] txrate 1000Bps
attr unit Bps
par Aloha.host[32] typename "\"Host\""
par Aloha.host[32] arrrate 0.2
par Aloha.host[32] packet_size 1B
attr unit B
par Aloha.host[32] x 191.578m
attr unit m
par Aloha.host[32] y 82.3576m
attr unit m
par Aloha.host[32] txrate 1000Bps
attr unit Bps
par Aloha.host[33] typename "\"Host\""
par Aloha.host[33] arrrate 0.2
par Aloha.host[33] packet_size 1B
attr unit B
par Aloha.host[33] x 106.633m
attr unit m
par Aloha.host[33] y 39.5102m
attr unit m
par Aloha.host[33] txrate 1000Bps
attr unit Bps
par Aloha.host[34] typename "\"Host\""
par Aloha.host[34] arrrate 0.2
par Aloha.host[34] packet_size 1B
attr unit B
par Aloha.host[34] x 138.375m
attr unit m
par Aloha.host[34] y 57.9259m
attr unit m
par Aloha.host[34] txrate 1000Bps
attr unit Bps
par Aloha.host[35] typename "\"Host\""
par Aloha.host[35] arrrate 0.2
par Aloha.host[35] packet_size 1B
attr unit B
par Aloha.host[35] x 63.1031m
attr unit m
par Aloha.host[35] y 28.424m
attr unit m
par Aloha.host[35] txrate 1000Bps
attr unit Bps
par Aloha.host[36] typename "\"Host\""
par Aloha.host[36] arrrate 0.2
par Aloha.host[36] packet_size 1B
attr unit B
par Aloha.host[36] x 137.3m
attr unit m
par Aloha.host[36] y 156.663m
attr unit m
par Aloha.host[36] txrate 1000Bps
attr unit Bps
par Aloha.host[37] typename "\"Host\""
par Aloha.host[37] arrrate 0.2
par Aloha.host[37] packet_size 1B
attr unit B
par Aloha.host[37] x 166.925m
attr unit m
par Aloha.host[37] y 82.5078m
attr unit m
par Aloha.host[37] txrate 1000Bps
attr unit Bps
par Aloha.host[38] typename "\"Host\""
par Aloha.host[38] arrrate 0.2
par Aloha.host[38] packet_size 1B
attr unit B
par Aloha.host[38] x 3.65766m
attr unit m
par Aloha.host[38] y 6.83426m
attr unit m
par Aloha.host[38] txrate 1000Bps
attr unit Bps
par Aloha.host[39] typename "\"Host\""
par Aloha.host[39] arrrate 0.2
par Aloha.host[39] packet_size 1B
attr unit B
par Aloha.host[39] x 150.029m
attr unit m
par Aloha.host[39] y 124.806m
attr unit m
par Aloha.host[39] txrate 1000Bps
attr unit Bps
par Aloha.host[40] typename "\"Host\""
par Aloha.host[40] arrrate 0.2
par Aloha.host[40] packet_size 1B
attr unit B
par Aloha.host[40] x 197.772m
attr unit m
par Aloha.host[40] y 132.127m
attr unit m
par Aloha.host[40] txrate 1000Bps
attr unit Bps
par Aloha.host[41] typename "\"Host\""
par Aloha.host[41] arrrate 0.2
par Aloha.host[41] packet_size 1B
attr unit B
par Aloha.host[41] x 149.633m
attr unit m
par Aloha.host[41] y 59.6991m
attr unit m
par Aloha.host[41] txrate 1000Bps
attr unit Bps
par Aloha.host[42] typename "\"Host\""
par Aloha.host[42] arrrate 0.2
par Aloha.host[42] packet_size 1B
attr unit B
par Aloha.host[42] x 56.0888m
attr unit m
par Aloha.host[42] y 89.2269m
attr unit m
par Aloha.host[42] txrate 1000Bps
attr unit Bps
par Aloha.host[43] typename "\"Host\""
par Aloha.host[43] arrrate 0.2
par Aloha.host[43] packet_size 1B
attr unit B
par Aloha.host[43] x 157.856m
attr unit m
par Aloha.host[43] y 44.4249m
attr unit m
par Aloha.host[43] txrate 1000Bps
attr unit Bps
par Aloha.host[44] typename "\"Host\""
par Aloha.host[44] arrrate 0.2
par Aloha.host[44] packet_size 1B
attr unit B
par Aloha.host[44] x 20.6452m
attr unit m
par Aloha.host[44] y 14.6728m
attr unit m
par Aloha.host[44] txrate 1000Bps
attr unit Bps
par Aloha.host[45] typename "\"Host\""
par Aloha.host[45] arrrate 0.2
par Aloha.host[45] packet_size 1B
attr unit B
par Aloha.host[45] x 89.5787m
attr unit m
par Aloha.host[45] y 93.8477m
attr unit m
par Aloha.host[45] txrate 1000Bps
attr unit Bps
par Aloha.host[46] typename "\"Host\""
par Aloha.host[46] arrrate 0.2
par Aloha.host[46] packet_size 1B
attr unit B
par Aloha.host[46] x 181.719m
attr unit m
par Aloha.host[46] y 19.2345m
attr unit m
par Aloha.host[46] txrate 1000Bps
attr unit Bps
par Aloha.host[47] typename "\"Host\""
par Aloha.host[47] arrrate 0.2
par Aloha.host[47] packet_size 1B
attr unit B
par Aloha.host[47] x 58.7228m
attr unit m
par Aloha.host[47] y 180.674m
attr unit m
par Aloha.host[47] txrate 1000Bps
attr unit Bps
par Aloha.host[48] typename "\"Host\""
par Aloha.host[48] arrrate 0.2
par Aloha.host[48] packet_size 1B
attr unit B
par Aloha.host[48] x 57.5551m
attr unit m
par Aloha.host[48] y 23.8981m
attr unit m
par Aloha.host[48] txrate 1000Bps
attr unit Bps
par Aloha.host[49] typename "\"Host\""
par Aloha.host[49] arrrate 0.2
par Aloha.host[49] packet_size 1B
attr unit B
par Aloha.host[49] x 26.0057m
attr unit m
par Aloha.host[49] y 104.96m
attr unit m
par Aloha.host[49] txrate 1000Bps
attr unit Bps
par Aloha.host[50] typename "\"Host\""
par Aloha.host[50] arrrate 0.2
par Aloha.host[50] packet_size 1B
attr unit B
par Aloha.host[50] x 3.87339m
attr unit m
par Aloha.host[50] y 16.7246m
attr unit m
par Aloha.host[50] txrate 1000Bps
attr unit Bps
par Aloha.host[51] typename "\"Host\""
par Aloha.host[51] arrrate 0.2
par Aloha.host[51] packet_size 1B
attr unit B
par Aloha.host[51] x 135.767m
attr unit m
par Aloha.host[51] y 183.372m
attr unit m
par Aloha.host[51] txrate 1000Bps
attr unit Bps
par Aloha.host[52] typename "\"Host\""
par Aloha.host[52] arrrate 0.2
par Aloha.host[52] packet_size 1B
attr unit B
par Aloha.host[52] x 42.3256m
attr unit m
par Aloha.host[52] y 182.09m
attr unit m
par Aloha.host[52] txrate 1000Bps
attr unit Bps
par Aloha.host[53] typename "\"Host\""
par Aloha.host[53] arrrate 0.2
par Aloha.host[53] packet_size 1B
attr unit B
par Aloha.host[53] x 53.1093m
attr unit m
par Aloha.host[53] y 59.786m
attr unit m
par Aloha.host[53] txrate 1000Bps
attr unit Bps
par Aloha.host[54] typename "\"Host\""
par Aloha.host[54] arrrate 0.2
par Aloha.host[54] packet_size 1B
attr unit B
par Aloha.host[54] x 98.3146m
attr unit m
par Aloha.host[54] y 116.878m
attr unit m
par Aloha.host[54] txrate 1000Bps
attr unit Bps
par Aloha.host[55] typename "\"Host\""
par Aloha.host[55] arrrate 0.2
par Aloha.host[55] packet_size 1B
attr unit B
par Aloha.host[55] x 10.6725m
attr unit m
par Aloha.host[55] y 113.182m
attr unit m
par Aloha.host[55] txrate 1000Bps
attr unit Bps
par Aloha.host[56] typename "\"Host\""
par Aloha.host[56] arrrate 0.2
par Aloha.host[56] packet_size 1B
attr unit B
par Aloha.host[56] x 114.824m
attr unit m
par Aloha.host[56] y 122.788m
attr unit m
par Aloha.host[56] txrate 1000Bps
attr unit Bps
par Aloha.host[57] typename "\"Host\""
par Aloha.host[57] arrrate 0.2
par Aloha.host[57] packet_size 1B
attr unit B
par Aloha.host[57] x 29.3457m
attr unit m
par Aloha.host[57] y 191.307m
attr unit m
par Aloha.host[57] txrate 1000Bps
attr unit Bps
par Aloha.host[58] typename "\"Host\""
par Aloha.host[58] arrrate 0.2
par Aloha.host[58] packet_size 1B
attr unit B
par Aloha.host[58] x 117.861m
attr unit m
par Aloha.host[58] y 52.1958m
attr unit m
par Aloha.host[58] txrate 1000Bps
attr unit Bps
par Aloha.host[59] typename "\"Host\""
par Aloha.host[59] arrrate 0.2
par Aloha.host[59] packet_size 1B
attr unit B
par Aloha.host[59] x 139.952m
attr unit m
par Aloha.host[59] y 46.2031m
attr unit m
par Aloha.host[59] txrate 1000Bps
attr unit Bps
par Aloha.host[60] typename "\"Host\""
par Aloha.host[60] arrrate 0.2
par Aloha.host[60] packet_size 1B
attr unit B
par Aloha.host[60] x 20.4669m
attr unit m
par Aloha.host[60] y 106.69m
attr unit m
par Aloha.host[60] txrate 1000Bps
attr unit Bps
par Aloha.host[61] typename "\"Host\""
par Aloha.host[61] arrrate 0.2
par Aloha.host[61] packet_size 1B
attr unit B
par Aloha.host[61] x 82.8112m
attr unit m
par Aloha.host[61] y 189.988m
attr unit m
par Aloha.host[61] txrate 1000Bps
attr unit Bps
par Aloha.host[62] typename "\"Host\""
par Aloha.host[62] arrrate 0.2
par Aloha.host[62] packet_size 1B
attr unit B
par Aloha.host[62] x 138.88m
attr unit m
par Aloha.host[62] y 98.6119m
attr unit m
par Aloha.host[62] txrate 1000Bps
attr unit Bps
par Aloha.host[63] typename "\"Host\""
par Aloha.host[63] arrrate 0.2
par Aloha.host[63] packet_size 1B
attr unit B
par Aloha.host[63] x 82.8359m
attr unit m
par Aloha.host[63] y 108.12m
attr unit m
par Aloha.host[63] txrate 1000Bps
attr unit Bps
par Aloha.host[64] typename "\"Host\""
par Aloha.host[64] arrrate 0.2
par Aloha.host[64] packet_size 1B
attr unit B
par Aloha.host[64] x 9.99069m
attr unit m
par Aloha.host[64] y 153.097m
attr unit m
par Aloha.host[64] txrate 1000Bps
attr unit Bps
par Aloha.host[65] typename "\"Host\""
par Aloha.host[65] arrrate 0.2
par Aloha.host[65] packet_size 1B
attr unit B
par Aloha.host[65] x 107.179m
attr unit m
par Aloha.host[65] y 9.06915m
attr unit m
par Aloha.host[65] txrate 1000Bps
attr unit Bps
par Aloha.host[66] typename "\"Host\""
par Aloha.host[66] arrrate 0.2
par Aloha.host[66] packet_size 1B
attr unit B
par Aloha.host[66] x 132.759m
attr unit m
par Aloha.host[66] y 27.9932m
attr unit m
par Aloha.host[66] txrate 1000Bps
attr unit Bps
par Aloha.host[67] typename "\"Host\""
par Aloha.host[67] arrrate 0.2
par Aloha.host[67] packet_size 1B
attr unit B
par Aloha.host[67] x 102.978m
attr unit m
par Aloha.host[67] y 158.481m
attr unit m
par Aloha.host[67] txrate 1000Bps
attr unit Bps
par Aloha.host[68] typename "\"Host\""
par Aloha.host[68] arrrate 0.2
par Aloha.host[68] packet_size 1B
attr unit B
par Aloha.host[68] x 188.919m
attr unit m
par Aloha.host[68] y 5.96027m
attr unit m
par Aloha.host[68] txrate 1000Bps
attr unit Bps
par Aloha.host[69] typename "\"Host\""
par Aloha.host[69] arrrate 0.2
par Aloha.host[69] packet_size 1B
attr unit B
par Aloha.host[69] x 117.311m
attr unit m
par Aloha.host[69] y 176.625m
attr unit m
par Aloha.host[69] txrate 1000Bps
attr unit Bps
par Aloha.host[70] typename "\"Host\""
par Aloha.host[70] arrrate 0.2
par Aloha.host[70] packet_size 1B
attr unit B
par Aloha.host[70] x 180.68m
attr unit m
par Aloha.host[70] y 108.158m
attr unit m
par Aloha.host[70] txrate 1000Bps
attr unit Bps
par Aloha.host[71] typename "\"Host\""
par Aloha.host[71] arrrate 0.2
par Aloha.host[71] packet_size 1B
attr unit B
par Aloha.host[71] x 27.4949m
attr unit m
par Aloha.host[71] y 89.596m
attr unit m
par Aloha.host[71] txrate 1000Bps
attr unit Bps
par Aloha.host[72] typename "\"Host\""
par Aloha.host[72] arrrate 0.2
par Aloha.host[72] packet_size 1B
attr unit B
par Aloha.host[72] x 27.8553m
attr unit m
par Aloha.host[72] y 178.427m
attr unit m
par Aloha.host[72] txrate 1000Bps
attr unit Bps
par Aloha.host[73] typename "\"Host\""
par Aloha.host[73] arrrate 0.2
par Aloha.host[73] packet_size 1B
attr unit B
par Aloha.host[73] x 161.478m
attr unit m
par Aloha.host[73] y 75.5169m
attr unit m
par Aloha.host[73] txrate 1000Bps
attr unit Bps
par Aloha.host[74] typename "\"Host\""
par Aloha.host[74] arrrate 0.2
par Aloha.host[74] packet_size 1B
attr unit B
par Aloha.host[74] x 79.5354m
attr unit m
par Aloha.host[74] y 107.685m
attr unit m
par Aloha.host[74] txrate 1000Bps
attr unit Bps
par Aloha.host[75] typename "\"Host\""
par Aloha.host[75] arrrate 0.2
par Aloha.host[75] packet_size 1B
attr unit B
par Aloha.host[75] x 33.0708m
attr unit m
par Aloha.host[75] y 130.46m
attr unit m
par Aloha.host[75] txrate 1000Bps
attr unit Bps
par Aloha.host[76] typename "\"Host\""
par Aloha.host[76] arrrate 0.2
par Aloha.host[76] packet_size 1B
attr unit B
par Aloha.host[76] x 185.502m
attr unit m
par Aloha.host[76] y 72.2522m
attr unit m
par Aloha.host[76] txrate 1000Bps
attr unit Bps
par Aloha.host[77] typename "\"Host\""
par Aloha.host[77] arrrate 0.2
par Aloha.host[77] packet_size 1B
attr unit B
par Aloha.host[77] x 69.5532m
attr unit m
par Aloha.host[77] y 114.202m
attr unit m
par Aloha.host[77] txrate 1000Bps
attr unit Bps
par Aloha.host[78] typename "\"Host\""
par Aloha.host[78] arrrate 0.2
par Aloha.host[78] packet_size 1B
attr unit B
par Aloha.host[78] x 150.162m
attr unit m
par Aloha.host[78] y 127.567m
attr unit m
par Aloha.host[78] txrate 1000Bps
attr unit Bps
par Aloha.host[79] typename "\"Host\""
par Aloha.host[79] arrrate 0.2
par Aloha.host[79] packet_size 1B
attr unit B
par Aloha.host[79] x 145.2m
attr unit m
par Aloha.host[79] y 25.263m
attr unit m
par Aloha.host[79] txrate 1000Bps
attr unit Bps
par Aloha.host[80] typename "\"Host\""
par Aloha.host[80] arrrate 0.2
par Aloha.host[80] packet_size 1B
attr unit B
par Aloha.host[80] x 176.661m
attr unit m
par Aloha.host[80] y 138.041m
attr unit m
par Aloha.host[80] txrate 1000Bps
attr unit Bps
par Aloha.host[81] typename "\"Host\""
par Aloha.host[81] arrrate 0.2
par Aloha.host[81] packet_size 1B
attr unit B
par Aloha.host[81] x 124.734m
attr unit m
par Aloha.host[81] y 129.55m
attr unit m
par Aloha.host[81] txrate 1000Bps
attr unit Bps
par Aloha.host[82] typename "\"Host\""
par Aloha.host[82] arrrate 0.2
par Aloha.host[82] packet_size 1B
attr unit B
par Aloha.host[82] x 150.188m
attr unit m
par Aloha.host[82] y 70.7878m
attr unit m
par Aloha.host[82] txrate 1000Bps
attr unit Bps
par Aloha.host[83] typename "\"Host\""
par Aloha.host[83] arrrate 0.2
par Aloha.host[83] packet_size 1B
attr unit B
par Aloha.host[83] x 69.7797m
attr unit m
par Aloha.host[83] y 152.647m
attr unit m
par Aloha.host[83] txrate 1000Bps
attr unit Bps
par Aloha.host[84] typename "\"Host\""
par Aloha.host[84] arrrate 0.2
par Aloha.host[84] packet_size 1B
attr unit B
par Aloha.host[84] x 53.9856m
attr unit m
par Aloha.host[84] y 71.3063m
attr unit m
par Aloha.host[84] txrate 1000Bps
attr unit Bps
par Aloha.host[85] typename "\"Host\""
par Aloha.host[85] arrrate 0.2
par Aloha.host[85] packet_size 1B
attr unit B
par Aloha.host[85] x 179.177m
attr unit m
par Aloha.host[85] y 150.558m
attr unit m
par Aloha.host[85] txrate 1000Bps
attr unit Bps
par Aloha.host[86] typename "\"Host\""
par Aloha.host[86] arrrate 0.2
par Aloha.host[86] packet_size 1B
attr unit B
par Aloha.host[86] x 85.6182m
attr unit m
par Aloha.host[86] y 176.268m
attr unit m
par Aloha.host[86] txrate 1000Bps
attr unit Bps
par Aloha.host[87] typename "\"Host\""
par Aloha.host[87] arrrate 0.2
par Aloha.host[87] packet_size 1B
attr unit B
par Aloha.host[87] x 192.968m
attr unit m
par Aloha.host[87] y 2.33384m
attr unit m
par Aloha.host[87] txrate 1000Bps
attr unit Bps
par Aloha.host[88] typename "\"Host\""
par Aloha.host[88] arrrate 0.2
par Aloha.host[88] packet_size 1B
attr unit B
par Aloha.host[88] x 132.688m
attr unit m
par Aloha.host[88] y 99.6218m
attr unit m
par Aloha.host[88] txrate 1000Bps
attr unit Bps
par Aloha.host[89] typename "\"Host\""
par Aloha.host[89] arrrate 0.2
par Aloha.host[89] packet_size 1B
attr unit B
par Aloha.host[89] x 124.339m
attr unit m
par Aloha.host[89] y 14.7584m
attr unit m
par Aloha.host[89] txrate 1000Bps
attr unit Bps
par Aloha.host[90] typename "\"Host\""
par Aloha.host[90] arrrate 0.2
par Aloha.host[90] packet_size 1B
attr unit B
par Aloha.host[90] x 22.9492m
attr unit m
par Aloha.host[90] y 157.39m
attr unit m
par Aloha.host[90] txrate 1000Bps
attr unit Bps
par Aloha.host[91] typename "\"Host\""
par Aloha.host[91] arrrate 0.2
par Aloha.host[91] packet_size 1B
attr unit B
par Aloha.host[91] x 189.898m
attr unit m
par Aloha.host[91] y 12.8135m
attr unit m
par Aloha.host[91] txrate 1000Bps
attr unit Bps
par Aloha.host[92] typename "\"Host\""
par Aloha.host[92] arrrate 0.2
par Aloha.host[92] packet_size 1B
attr unit B
par Aloha.host[92] x 89.9824m
attr unit m
par Aloha.host[92] y 71.0621m
attr unit m
par Aloha.host[92] txrate 1000Bps
attr unit Bps
par Aloha.host[93] typename "\"Host\""
par Aloha.host[93] arrrate 0.2
par Aloha.host[93] packet_size 1B
attr unit B
par Aloha.host[93] x 115.678m
attr unit m
par Aloha.host[93] y 188.367m
attr unit m
par Aloha.host[93] txrate 1000Bps
attr unit Bps
par Aloha.host[94] typename "\"Host\""
par Aloha.host[94] arrrate 0.2
par Aloha.host[94] packet_size 1B
attr unit B
par Aloha.host[94] x 81.6274m
attr unit m
par Aloha.host[94] y 75.9607m
attr unit m
par Aloha.host[94] txrate 1000Bps
attr unit Bps
par Aloha.host[95] typename "\"Host\""
par Aloha.host[95] arrrate 0.2
par Aloha.host[95] packet_size 1B
attr unit B
par Aloha.host[95] x 47.4054m
attr unit m
par Aloha.host[95] y 152.584m
attr unit m
par Aloha.host[95] txrate 1000Bps
attr unit Bps
par Aloha.host[96] typename "\"Host\""
par Aloha.host[96] arrrate 0.2
par Aloha.host[96] packet_size 1B
attr unit B
par Aloha.host[96] x 180.676m
attr unit m
par Aloha.host[96] y 154.319m
attr unit m
par Aloha.host[96] txrate 1000Bps
attr unit Bps
par Aloha.host[97] typename "\"Host\""
par Aloha.host[97] arrrate 0.2
par Aloha.host[97] packet_size 1B
attr unit B
par Aloha.host[97] x 114.736m
attr unit m
par Aloha.host[97] y 60.2721m
attr unit m
par Aloha.host[97] txrate 1000Bps
attr unit Bps
par Aloha.host[98] typename "\"Host\""
par Aloha.host[98] arrrate 0.2
par Aloha.host[98] packet_size 1B
attr unit B
par Aloha.host[98] x 0.574065m
attr unit m
par Aloha.host[98] y 154.548m
attr unit m
par Aloha.host[98] txrate 1000Bps
attr unit Bps
par Aloha.host[99] typename "\"Host\""
par Aloha.host[99] arrrate 0.2
par Aloha.host[99] packet_size 1B
attr unit B
par Aloha.host[99] x 123.429m
attr unit m
par Aloha.host[99] y 30.586m
attr unit m
par Aloha.host[99] txrate 1000Bps
attr unit Bps
par Aloha.host[100] typename "\"Host\""
par Aloha.host[100] arrrate 0.2
par Aloha.host[100] packet_size 1B
attr unit B
par Aloha.host[100] x 65.329m
attr unit m
par Aloha.host[100] y 115.727m
attr unit m
par Aloha.host[100] txrate 1000Bps
attr unit Bps
par Aloha.host[101] typename "\"Host\""
par Aloha.host[101] arrrate 0.2
par Aloha.host[101] packet_size 1B
attr unit B
par Aloha.host[101] x 105.412m
attr unit m
par Aloha.host[101] y 1.8016m
attr unit m
par Aloha.host[101] txrate 1000Bps
attr unit Bps
par Aloha.host[102] typename "\"Host\""
par Aloha.host[102] arrrate 0.2
par Aloha.host[102] packet_size 1B
attr unit B
par Aloha.host[102] x 177.188m
attr unit m
par Aloha.host[102] y 141.809m
attr unit m
par Aloha.host[102] txrate 1000Bps
attr unit Bps
par Aloha.host[103] typename "\"Host\""
par Aloha.host[103] arrrate 0.2
par Aloha.host[103] packet_size 1B
attr unit B
par Aloha.host[103] x 71.454m
attr unit m
par Aloha.host[103] y 94.1282m
attr unit m
par Aloha.host[103] txrate 1000Bps
attr unit Bps
par Aloha.host[104] typename "\"Host\""
par Aloha.host[104] arrrate 0.2
par Aloha.host[104] packet_size 1B
attr unit B
par Aloha.host[104] x 181.707m
attr unit m
par Aloha.host[104] y 152.919m
attr unit m
par Aloha.host[104] txrate 1000Bps
attr unit Bps
par Aloha.host[105] typename "\"Host\""
par Aloha.host[105] arrrate 0.2
par Aloha.host[105] packet_size 1B
attr unit B
par Aloha.host[105] x 124.672m
attr unit m
par Aloha.host[105] y 93.4785m
attr unit m
par Aloha.host[105] txrate 1000Bps
attr unit Bps
par Aloha.host[106] typename "\"Host\""
par Aloha.host[106] arrrate 0.2
par Aloha.host[106] packet_size 1B
attr unit B
par Aloha.host[106] x 3.16425m
attr unit m
par Aloha.host[106] y 53.8002m
attr unit m
par Aloha.host[106] txrate 1000Bps
attr unit Bps
par Aloha.host[107] typename "\"Host\""
par Aloha.host[107] arrrate 0.2
par Aloha.host[107] packet_size 1B
attr unit B
par Aloha.host[107] x 185.887m
attr unit m
par Aloha.host[107] y 166.339m
attr unit m
par Aloha.host[107] txrate 1000Bps
attr unit Bps
par Aloha.host[108] typename "\"Host\""
par Aloha.host[108] arrrate 0.2
par Aloha.host[108] packet_size 1B
attr unit B
par Aloha.host[108] x 138.179m
attr unit m
par Aloha.host[108] y 110.265m
attr unit m
par Aloha.host[108] txrate 1000Bps
attr unit Bps
par Aloha.host[109] typename "\"Host\""
par Aloha.host[109] arrrate 0.2
par Aloha.host[109] packet_size 1B
attr unit B
par Aloha.host[109] x 199.465m
attr unit m
par Aloha.host[109] y 14.0163m
attr unit m
par Aloha.host[109] txrate 1000Bps
attr unit Bps
par Aloha.host[110] typename "\"Host\""
par Aloha.host[110] arrrate 0.2
par Aloha.host[110] packet_size 1B
attr unit B
par Aloha.host[110] x 34.4681m
attr unit m
par Aloha.host[110] y 94.495m
attr unit m
par Aloha.host[110] txrate 1000Bps
attr unit Bps
par Aloha.host[111] typename "\"Host\""
par Aloha.host[111] arrrate 0.2
par Aloha.host[111] packet_size 1B
attr unit B
par Aloha.host[111] x 27.4271m
attr unit m
par Aloha.host[111] y 148.553m
attr unit m
par Aloha.host[111] txrate 1000Bps
attr unit Bps
par Aloha.host[112] typename "\"Host\""
par Aloha.host[112] arrrate 0.2
par Aloha.host[112] packet_size 1B
attr unit B
par Aloha.host[112] x 186.519m
attr unit m
par Aloha.host[112] y 38.3912m
attr unit m
par Aloha.host[112] txrate 1000Bps
attr unit Bps
par Aloha.host[113] typename "\"Host\""
par Aloha.host[113] arrrate 0.2
par Aloha.host[113] packet_size 1B
attr unit B
par Aloha.host[113] x 139.364m
attr unit m
par Aloha.host[113] y 92.8623m
attr unit m
par Aloha.host[113] txrate 1000Bps
attr unit Bps
par Aloha.host[114] typename "\"Host\""
par Aloha.host[114] arrrate 0.2
par Aloha.host[114] packet_size 1B
attr unit B
par Aloha.host[114] x 13.2m
attr unit m
par Aloha.host[114] y 46.0726m
attr unit m
par Aloha.host[114] txrate 1000Bps
attr unit Bps
par Aloha.host[115] typename "\"Host\""
par Aloha.host[115] arrrate 0.2
par Aloha.host[115] packet_size 1B
attr unit B
par Aloha.host[115] x 151.093m
attr unit m
par Aloha.host[115] y 101.65m
attr unit m
par Aloha.host[115] txrate 1000Bps
attr unit Bps
par Aloha.host[116] typename "\"Host\""
par Aloha.host[116] arrrate 0.2
par Aloha.host[116] packet_size 1B
attr unit B
par Aloha.host[116] x 150.775m
attr unit m
par Aloha.host[116] y 41.7137m
attr unit m
par Aloha.host[116] txrate 1000Bps
attr unit Bps
par Aloha.host[117] typename "\"Host\""
par Aloha.host[117] arrrate 0.2
par Aloha.host[117] packet_size 1B
attr unit B
par Aloha.host[117] x 184.605m
attr unit m
par Aloha.host[117] y 9.86085m
attr unit m
par Aloha.host[117] txrate 1000Bps
attr unit Bps
par Aloha.host[118] typename "\"Host\""
par Aloha.host[118] arrrate 0.2
par Aloha.host[118] packet_size 1B
attr unit B
par Aloha.host[118] x 142.305m
attr unit m
par Aloha.host[118] y 103.772m
attr unit m
par Aloha.host[118] txrate 1000Bps
attr unit Bps
par Aloha.host[119] typename "\"Host\""
par Aloha.host[119] arrrate 0.2
par Aloha.host[119] packet_size 1B
attr unit B
par Aloha.host[119] x 24.8542m
attr unit m
par Aloha.host[119] y 34.4557m
attr unit m
par Aloha.host[119] txrate 1000Bps
attr unit Bps
par Aloha.host[120] typename "\"Host\""
par Aloha.host[120] arrrate 0.2
par Aloha.host[120] packet_size 1B
attr unit B
par Aloha.host[120] x 3.97603m
attr unit m
par Aloha.host[120] y 79.2627m
attr unit m
par Aloha.host[120] txrate 1000Bps
attr unit Bps
par Aloha.host[121] typename "\"Host\""
par Aloha.host[121] arrrate 0.2
par Aloha.host[121] packet_size 1B
attr unit B
par Aloha.host[121] x 5.2422m
attr unit m
par Aloha.host[121] y 21.4731m
attr unit m
par Aloha.host[121] txrate 1000Bps
attr unit Bps
par Aloha.host[122] typename "\"Host\""
par Aloha.host[122] arrrate 0.2
par Aloha.host[122] packet_size 1B
attr unit B
par Aloha.host[122] x 5.6613m
attr unit m
par Aloha.host[122] y 101.962m
attr unit m
par Aloha.host[122] txrate 1000Bps
attr unit Bps
par Aloha.host[123] typename "\"Host\""
par Aloha.host[123] arrrate 0.2
par Aloha.host[123] packet_size 1B
attr unit B
par Aloha.host[123] x 49.2422m
attr unit m
par Aloha.host[123] y 20.427m
attr unit m
par Aloha.host[123] txrate 1000Bps
attr unit Bps
par Aloha.host[124] typename "\"Host\""
par Aloha.host[124] arrrate 0.2
par Aloha.host[124] packet_size 1B
attr unit B
par Aloha.host[124] x 172.006m
attr unit m
par Aloha.host[124] y 57.7436m
attr unit m
par Aloha.host[124] txrate 1000Bps
attr unit Bps
par Aloha.host[125] typename "\"Host\""
par Aloha.host[125] arrrate 0.2
par Aloha.host[125] packet_size 1B
attr unit B
par Aloha.host[125] x 107.766m
attr unit m
par Aloha.host[125] y 46.3517m
attr unit m
par Aloha.host[125] txrate 1000Bps
attr unit Bps
par Aloha.host[126] typename "\"Host\""
par Aloha.host[126] arrrate 0.2
par Aloha.host[126] packet_size 1B
attr unit B
par Aloha.host[126] x 110.564m
attr unit m
par Aloha.host[126] y 193.534m
attr unit m
par Aloha.host[126] txrate 1000Bps
attr unit Bps
par Aloha.host[127] typename "\"Host\""
par Aloha.host[127] arrrate 0.2
par Aloha.host[127] packet_size 1B
attr unit B
par Aloha.host[127] x 168.406m
attr unit m
par Aloha.host[127] y 55.6638m
attr unit m
par Aloha.host[127] txrate 1000Bps
attr unit Bps
par Aloha.host[128] typename "\"Host\""
par Aloha.host[128] arrrate 0.2
par Aloha.host[128] packet_size 1B
attr unit B
par Aloha.host[128] x 24.8347m
attr unit m
par Aloha.host[128] y 46.7245m
attr unit m
par Aloha.host[128] txrate 1000Bps
attr unit Bps
par Aloha.host[129] typename "\"Host\""
par Aloha.host[129] arrrate 0.2
par Aloha.host[129] packet_size 1B
attr unit B
par Aloha.host[129] x 55.8367m
attr unit m
par Aloha.host[129] y 18.3113m
attr unit m
par Aloha.host[129] txrate 1000Bps
attr unit Bps
par Aloha.host[130] typename "\"Host\""
par Aloha.host[130] arrrate 0.2
par Aloha.host[130] packet_size 1B
attr unit B
par Aloha.host[130] x 117.152m
attr unit m
par Aloha.host[130] y 114.013m
attr unit m
par Aloha.host[130] txrate 1000Bps
attr unit Bps
par Aloha.host[131] typename "\"Host\""
par Aloha.host[131] arrrate 0.2
par Aloha.host[131] packet_size 1B
attr unit B
par Aloha.host[131] x 193.919m
attr unit m
par Aloha.host[131] y 83.5853m
attr unit m
par Aloha.host[131] txrate 1000Bps
attr unit Bps
par Aloha.host[132] typename "\"Host\""
par Aloha.host[132] arrrate 0.2
par Aloha.host[132] packet_size 1B
attr unit B
par Aloha.host[132] x 112.206m
attr unit m
par Aloha.host[132] y 73.5686m
attr unit m
par Aloha.host[132] txrate 1000Bps
attr unit Bps
par Aloha.host[133] typename "\"Host\""
par Aloha.host[133] arrrate 0.2
par Aloha.host[133] packet_size 1B
attr unit B
par Aloha.host[133] x 3.72946m
attr unit m
par Aloha.host[133] y 162.599m
attr unit m
par Aloha.host[133] txrate 1000Bps
attr unit Bps
par Aloha.host[134] typename "\"Host\""
par Aloha.host[134] arrrate 0.2
par Aloha.host[134] packet_size 1B
attr unit B
par Aloha.host[134] x 160.127m
attr unit m
par Aloha.host[134] y 57.952m
attr unit m
par Aloha.host[134] txrate 1000Bps
attr unit Bps
par Aloha.host[135] typename "\"Host\""
par Aloha.host[135] arrrate 0.2
par Aloha.host[135] packet_size 1B
attr unit B
par Aloha.host[135] x 46.5949m
attr unit m
par Aloha.host[135] y 143.478m
attr unit m
par Aloha.host[135] txrate 1000Bps
attr unit Bps
par Aloha.host[136] typename "\"Host\""
par Aloha.host[136] arrrate 0.2
par Aloha.host[136] packet_size 1B
attr unit B
par Aloha.host[136] x 161.421m
attr unit m
par Aloha.host[136] y 122.59m
attr unit m
par Aloha.host[136] txrate 1000Bps
attr unit Bps
par Aloha.host[137] typename "\"Host\""
par Aloha.host[137] arrrate 0.2
par Aloha.host[137] packet_size 1B
attr unit B
par Aloha.host[137] x 77.5721m
attr unit m
par Aloha.host[137] y 85.382m
attr unit m
par Aloha.host[137] txrate 1000Bps
attr unit Bps
par Aloha.host[138] typename "\"Host\""
par Aloha.host[138] arrrate 0.2
par Aloha.host[138] packet_size 1B
attr unit B
par Aloha.host[138] x 172.708m
attr unit m
par Aloha.host[138] y 150.375m
attr unit m
par Aloha.host[138] txrate 1000Bps
attr unit Bps
par Aloha.host[139] typename "\"Host\""
par Aloha.host[139] arrrate 0.2
par Aloha.host[139] packet_size 1B
attr unit B
par Aloha.host[139] x 149.424m
attr unit m
par Aloha.host[139] y 85.5625m
attr unit m
par Aloha.host[139] txrate 1000Bps
attr unit Bps
par Aloha.host[140] typename "\"Host\""
par Aloha.host[140] arrrate 0.2
par Aloha.host[140] packet_size 1B
attr unit B
par Aloha.host[140] x 111.248m
attr unit m
par Aloha.host[140] y 85.6765m
attr unit m
par Aloha.host[140] txrate 1000Bps
attr unit Bps
par Aloha.host[141] typename "\"Host\""
par Aloha.host[141] arrrate 0.2
par Aloha.host[141] packet_size 1B
attr unit B
par Aloha.host[141] x 27.291m
attr unit m
par Aloha.host[141] y 72.3809m
attr unit m
par Aloha.host[141] txrate 1000Bps
attr unit Bps
par Aloha.host[142] typename "\"Host\""
par Aloha.host[142] arrrate 0.2
par Aloha.host[142] packet_size 1B
attr unit B
par Aloha.host[142] x 11.9835m
attr unit m
par Aloha.host[142] y 30.6677m
attr unit m
par Aloha.host[142] txrate 1000Bps
attr unit Bps
par Aloha.host[143] typename "\"Host\""
par Aloha.host[143] arrrate 0.2
par Aloha.host[143] packet_size 1B
attr unit B
par Aloha.host[143] x 24.2687m
attr unit m
par Aloha.host[143] y 187.438m
attr unit m
par Aloha.host[143] txrate 1000Bps
attr unit Bps
par Aloha.host[144] typename "\"Host\""
par Aloha.host[144] arrrate 0.2
par Aloha.host[144] packet_size 1B
attr unit B
par Aloha.host[144] x 8.91037m
attr unit m
par Aloha.host[144] y 183.282m
attr unit m
par Aloha.host[144] txrate 1000Bps
attr unit Bps
par Aloha.host[145] typename "\"Host\""
par Aloha.host[145] arrrate 0.2
par Aloha.host[145] packet_size 1B
attr unit B
par Aloha.host[145] x 21.4988m
attr unit m
par Aloha.host[145] y 156.392m
attr unit m
par Aloha.host[145] txrate 1000Bps
attr unit Bps
par Aloha.host[146] typename "\"Host\""
par Aloha.host[146] arrrate 0.2
par Aloha.host[146] packet_size 1B
attr unit B
par Aloha.host[146] x 45.1419m
attr unit m
par Aloha.host[146] y 123.266m
attr unit m
par Aloha.host[146] txrate 1000Bps
attr unit Bps
par Aloha.host[147] typename "\"Host\""
par Aloha.host[147] arrrate 0.2
par Aloha.host[147] packet_size 1B
attr unit B
par Aloha.host[147] x 142.598m
attr unit m
par Aloha.host[147] y 7.19989m
attr unit m
par Aloha.host[147] txrate 1000Bps
attr unit Bps
par Aloha.host[148] typename "\"Host\""
par Aloha.host[148] arrrate 0.2
par Aloha.host[148] packet_size 1B
attr unit B
par Aloha.host[148] x 111.943m
attr unit m
par Aloha.host[148] y 130.865m
attr unit m
par Aloha.host[148] txrate 1000Bps
attr unit Bps
par Aloha.host[149] typename "\"Host\""
par Aloha.host[149] arrrate 0.2
par Aloha.host[149] packet_size 1B
attr unit B
par Aloha.host[149] x 2.5112m
attr unit m
par Aloha.host[149] y 25.9539m
attr unit m
par Aloha.host[149] txrate 1000Bps
attr unit Bps
par Aloha.host[150] typename "\"Host\""
par Aloha.host[150] arrrate 0.2
par Aloha.host[150] packet_size 1B
attr unit B
par Aloha.host[150] x 14.3949m
attr unit m
par Aloha.host[150] y 58.8719m
attr unit m
par Aloha.host[150] txrate 1000Bps
attr unit Bps
par Aloha.host[151] typename "\"Host\""
par Aloha.host[151] arrrate 0.2
par Aloha.host[151] packet_size 1B
attr unit B
par Aloha.host[151] x 193.455m
attr unit m
par Aloha.host[151] y 72.163m
attr unit m
par Aloha.host[151] txrate 1000Bps
attr unit Bps
par Aloha.host[152] typename "\"Host\""
par Aloha.host[152] arrrate 0.2
par Aloha.host[152] packet_size 1B
attr unit B
par Aloha.host[152] x 113.62m
attr unit m
par Aloha.host[152] y 54.929m
attr unit m
par Aloha.host[152] txrate 1000Bps
attr unit Bps
par Aloha.host[153] typename "\"Host\""
par Aloha.host[153] arrrate 0.2
par Aloha.host[153] packet_size 1B
attr unit B
par Aloha.host[153] x 40.6586m
attr unit m
par Aloha.host[153] y 14.7938m
attr unit m
par Aloha.host[153] txrate 1000Bps
attr unit Bps
par Aloha.host[154] typename "\"Host\""
par Aloha.host[154] arrrate 0.2
par Aloha.host[154] packet_size 1B
attr unit B
par Aloha.host[154] x 50.4651m
attr unit m
par Aloha.host[154] y 30.4274m
attr unit m
par Aloha.host[154] txrate 1000Bps
attr unit Bps
par Aloha.host[155] typename "\"Host\""
par Aloha.host[155] arrrate 0.2
par Aloha.host[155] packet_size 1B
attr unit B
par Aloha.host[155] x 148.765m
attr unit m
par Aloha.host[155] y 32.3237m
attr unit m
par Aloha.host[155] txrate 1000Bps
attr unit Bps
par Aloha.host[156] typename "\"Host\""
par Aloha.host[156] arrrate 0.2
par Aloha.host[156] packet_size 1B
attr unit B
par Aloha.host[156] x 39.0859m
attr unit m
par Aloha.host[156] y 187.742m
attr unit m
par Aloha.host[156] txrate 1000Bps
attr unit Bps
par Aloha.host[157] typename "\"Host\""
par Aloha.host[157] arrrate 0.2
par Aloha.host[157] packet_size 1B
attr unit B
par Aloha.host[157] x 116.272m
attr unit m
par Aloha.host[157] y 74.2268m
attr unit m
par Aloha.host[157] txrate 1000Bps
attr unit Bps
par Aloha.host[158] typename "\"Host\""
par Aloha.host[158] arrrate 0.2
par Aloha.host[158] packet_size 1B
attr unit B
par Aloha.host[158] x 194.004m
attr unit m
par Aloha.host[158] y 10.0036m
attr unit m
par Aloha.host[158] txrate 1000Bps
attr unit Bps
par Aloha.host[159] typename "\"Host\""
par Aloha.host[159] arrrate 0.2
par Aloha.host[159] packet_size 1B
attr unit B
par Aloha.host[159] x 169.366m
attr unit m
par Aloha.host[159] y 148.191m
attr unit m
par Aloha.host[159] txrate 1000Bps
attr unit Bps
par Aloha.host[160] typename "\"Host\""
par Aloha.host[160] arrrate 0.2
par Aloha.host[160] packet_size 1B
attr unit B
par Aloha.host[160] x 47.9696m
attr unit m
par Aloha.host[160] y 59.736m
attr unit m
par Aloha.host[160] txrate 1000Bps
attr unit Bps
par Aloha.host[161] typename "\"Host\""
par Aloha.host[161] arrrate 0.2
par Aloha.host[161] packet_size 1B
attr unit B
par Aloha.host[161] x 98.7539m
attr unit m
par Aloha.host[161] y 40.8716m
attr unit m
par Aloha.host[161] txrate 1000Bps
attr unit Bps
par Aloha.host[162] typename "\"Host\""
par Aloha.host[162] arrrate 0.2
par Aloha.host[162] packet_size 1B
attr unit B
par Aloha.host[162] x 123.991m
attr unit m
par Aloha.host[162] y 196.351m
attr unit m
par Aloha.host[162] txrate 1000Bps
attr unit Bps
par Aloha.host[163] typename "\"Host\""
par Aloha.host[163] arrrate 0.2
par Aloha.host[163] packet_size 1B
attr unit B
par Aloha.host[163] x 165.796m
attr unit m
par Aloha.host[163] y 178.604m
attr unit m
par Aloha.host[163] txrate 1000Bps
attr unit Bps
par Aloha.host[164] typename "\"Host\""
par Aloha.host[164] arrrate 0.2
par Aloha.host[164] packet_size 1B
attr unit B
par Aloha.host[164] x 31.3583m
attr unit m
par Aloha.host[164] y 151.87m
attr unit m
par Aloha.host[164] txrate 1000Bps
attr unit Bps
par Aloha.host[165] typename "\"Host\""
par Aloha.host[165] arrrate 0.2
par Aloha.host[165] packet_size 1B
attr unit B
par Aloha.host[165] x 3.71524m
attr unit m
par Aloha.host[165] y 130.224m
attr unit m
par Aloha.host[165] txrate 1000Bps
attr unit Bps
par Aloha.host[166] typename "\"Host\""
par Aloha.host[166] arrrate 0.2
par Aloha.host[166] packet_size 1B
attr unit B
par Aloha.host[166] x 14.0044m
attr unit m
par Aloha.host[166] y 7.9367m
attr unit m
par Aloha.host[166] txrate 1000Bps
attr unit Bps
par Aloha.host[167] typename "\"Host\""
par Aloha.host[167] arrrate 0.2
par Aloha.host[167] packet_size 1B
attr unit B
par Aloha.host[167] x 97.269m
attr unit m
par Aloha.host[167] y 162.775m
attr unit m
par Aloha.host[167] txrate 1000Bps
attr unit Bps
par Aloha.host[168] typename "\"Host\""
par Aloha.host[168] arrrate 0.2
par Aloha.host[168] packet_size 1B
attr unit B
par Aloha.host[168] x 121.266m
attr unit m
par Aloha.host[168] y 152.515m
attr unit m
par Aloha.host[168] txrate 1000Bps
attr unit Bps
par Aloha.host[169] typename "\"Host\""
par Aloha.host[169] arrrate 0.2
par Aloha.host[169] packet_size 1B
attr unit B
par Aloha.host[169] x 113.77m
attr unit m
par Aloha.host[169] y 91.0565m
attr unit m
par Aloha.host[169] txrate 1000Bps
attr unit Bps
par Aloha.host[170] typename "\"Host\""
par Aloha.host[170] arrrate 0.2
par Aloha.host[170] packet_size 1B
attr unit B
par Aloha.host[170] x 63.4725m
attr unit m
par Aloha.host[170] y 106.365m
attr unit m
par Aloha.host[170] txrate 1000Bps
attr unit Bps
par Aloha.host[171] typename "\"Host\""
par Aloha.host[171] arrrate 0.2
par Aloha.host[171] packet_size 1B
attr unit B
par Aloha.host[171] x 197.723m
attr unit m
par Aloha.host[171] y 21.8672m
attr unit m
par Aloha.host[171] txrate 1000Bps
attr unit Bps
par Aloha.host[172] typename "\"Host\""
par Aloha.host[172] arrrate 0.2
par Aloha.host[172] packet_size 1B
attr unit B
par Aloha.host[172] x 115.949m
attr unit m
par Aloha.host[172] y 29.2065m
attr unit m
par Aloha.host[172] txrate 1000Bps
attr unit Bps
par Aloha.host[173] typename "\"Host\""
par Aloha.host[173] arrrate 0.2
par Aloha.host[173] packet_size 1B
attr unit B
par Aloha.host[173] x 76.0282m
attr unit m
par Aloha.host[173] y 101.758m
attr unit m
par Aloha.host[173] txrate 1000Bps
attr unit Bps
par Aloha.host[174] typename "\"Host\""
par Aloha.host[174] arrrate 0.2
par Aloha.host[174] packet_size 1B
attr unit B
par Aloha.host[174] x 110.19m
attr unit m
par Aloha.host[174] y 43.1301m
attr unit m
par Aloha.host[174] txrate 1000Bps
attr unit Bps
par Aloha.host[175] typename "\"Host\""
par Aloha.host[175] arrrate 0.2
par Aloha.host[175] packet_size 1B
attr unit B
par Aloha.host[175] x 149.067m
attr unit m
par Aloha.host[175] y 183.289m
attr unit m
par Aloha.host[175] txrate 1000Bps
attr unit Bps
par Aloha.host[176] typename "\"Host\""
par Aloha.host[176] arrrate 0.2
par Aloha.host[176] packet_size 1B
attr unit B
par Aloha.host[176] x 133.847m
attr unit m
par Aloha.host[176] y 92.4305m
attr unit m
par Aloha.host[176] txrate 1000Bps
attr unit Bps
par Aloha.host[177] typename "\"Host\""
par Aloha.host[177] arrrate 0.2
par Aloha.host[177] packet_size 1B
attr unit B
par Aloha.host[177] x 52.9839m
attr unit m
par Aloha.host[177] y 26.4535m
attr unit m
par Aloha.host[177] txrate 1000Bps
attr unit Bps
par Aloha.host[178] typename "\"Host\""
par Aloha.host[178] arrrate 0.2
par Aloha.host[178] packet_size 1B
attr unit B
par Aloha.host[178] x 13.267m
attr unit m
par Aloha.host[178] y 152.848m
attr unit m
par Aloha.host[178] txrate 1000Bps
attr unit Bps
par Aloha.host[179] typename "\"Host\""
par Aloha.host[179] arrrate 0.2
par Aloha.host[179] packet_size 1B
attr unit B
par Aloha.host[179] x 74.0168m
attr unit m
par Aloha.host[179] y 42.5467m
attr unit m
par Aloha.host[179] txrate 1000Bps
attr unit Bps
par Aloha.host[180] typename "\"Host\""
par Aloha.host[180] arrrate 0.2
par Aloha.host[180] packet_size 1B
attr unit B
par Aloha.host[180] x 125.944m
attr unit m
par Aloha.host[180] y 14.8517m
attr unit m
par Aloha.host[180] txrate 1000Bps
attr unit Bps
par Aloha.host[181] typename "\"Host\""
par Aloha.host[181] arrrate 0.2
par Aloha.host[181] packet_size 1B
attr unit B
par Aloha.host[181] x 42.0348m
attr unit m
par Aloha.host[181] y 19.0838m
attr unit m
par Aloha.host[181] txrate 1000Bps
attr unit Bps
par Aloha.host[182] typename "\"Host\""
par Aloha.host[182] arrrate 0.2
par Aloha.host[182] packet_size 1B
attr unit B
par Aloha.host[182] x 150.551m
attr unit m
par Aloha.host[182] y 32.4411m
attr unit m
par Aloha.host[182] txrate 1000Bps
attr unit Bps
par Aloha.host[183] typename "\"Host\""
par Aloha.host[183] arrrate 0.2
par Aloha.host[183] packet_size 1B
attr unit B
par Aloha.host[183] x 13.3073m
attr unit m
par Aloha.host[183] y 71.2927m
attr unit m
par Aloha.host[183] txrate 1000Bps
attr unit Bps
par Aloha.host[184] typename "\"Host\""
par Aloha.host[184] arrrate 0.2
par Aloha.host[184] packet_size 1B
attr unit B
par Aloha.host[184] x 52.063m
attr unit m
par Aloha.host[184] y 19.0616m
attr unit m
par Aloha.host[184] txrate 1000Bps
attr unit Bps
par Aloha.host[185] typename "\"Host\""
par Aloha.host[185] arrrate 0.2
par Aloha.host[185] packet_size 1B
attr unit B
par Aloha.host[185] x 160.951m
attr unit m
par Aloha.host[185] y 28.6526m
attr unit m
par Aloha.host[185] txrate 1000Bps
attr unit Bps
par Aloha.host[186] typename "\"Host\""
par Aloha.host[186] arrrate 0.2
par Aloha.host[186] packet_size 1B
attr unit B
par Aloha.host[186] x 38.6869m
attr unit m
par Aloha.host[186] y 186.203m
attr unit m
par Aloha.host[186] txrate 1000Bps
attr unit Bps
par Aloha.host[187] typename "\"Host\""
par Aloha.host[187] arrrate 0.2
par Aloha.host[187] packet_size 1B
attr unit B
par Aloha.host[187] x 127.892m
attr unit m
par Aloha.host[187] y 115.317m
attr unit m
par Aloha.host[187] txrate 1000Bps
attr unit Bps
par Aloha.host[188] typename "\"Host\""
par Aloha.host[188] arrrate 0.2
par Aloha.host[188] packet_size 1B
attr unit B
par Aloha.host[188] x 104.934m
attr unit m
par Aloha.host[188] y 167.929m
attr unit m
par Aloha.host[188] txrate 1000Bps
attr unit Bps
par Aloha.host[189] typename "\"Host\""
par Aloha.host[189] arrrate 0.2
par Aloha.host[189] packet_size 1B
attr unit B
par Aloha.host[189] x 184.962m
attr unit m
par Aloha.host[189] y 124.658m
attr unit m
par Aloha.host[189] txrate 1000Bps
attr unit Bps
par Aloha.host[190] typename "\"Host\""
par Aloha.host[190] arrrate 0.2
par Aloha.host[190] packet_size 1B
attr unit B
par Aloha.host[190] x 52.6594m
attr unit m
par Aloha.host[190] y 64.9035m
attr unit m
par Aloha.host[190] txrate 1000Bps
attr unit Bps
par Aloha.host[191] typename "\"Host\""
par Aloha.host[191] arrrate 0.2
par Aloha.host[191] packet_size 1B
attr unit B
par Aloha.host[191] x 13.1922m
attr unit m
par Aloha.host[191] y 145.602m
attr unit m
par Aloha.host[191] txrate 1000Bps
attr unit Bps
par Aloha.host[192] typename "\"Host\""
par Aloha.host[192] arrrate 0.2
par Aloha.host[192] packet_size 1B
attr unit B
par Aloha.host[192] x 147.013m
attr unit m
par Aloha.host[192] y 104.547m
attr unit m
par Aloha.host[192] txrate 1000Bps
attr unit Bps
par Aloha.host[193] typename "\"Host\""
par Aloha.host[193] arrrate 0.2
par Aloha.host[193] packet_size 1B
attr unit B
par Aloha.host[193] x 154.436m
attr unit m
par Aloha.host[193] y 147.362m
attr unit m
par Aloha.host[193] txrate 1000Bps
attr unit Bps
par Aloha.host[194] typename "\"Host\""
par Aloha.host[194] arrrate 0.2
par Aloha.host[194] packet_size 1B
attr unit B
par Aloha.host[194] x 181.563m
attr unit m
par Aloha.host[194] y 33.0812m
attr unit m
par Aloha.host[194] txrate 1000Bps
attr unit Bps
par Aloha.host[195] typename "\"Host\""
par Aloha.host[195] arrrate 0.2
par Aloha.host[195] packet_size 1B
attr unit B
par Aloha.host[195] x 186.394m
attr unit m
par Aloha.host[195] y 137.412m
attr unit m
par Aloha.host[195] txrate 1000Bps
attr unit Bps
par Aloha.host[196] typename "\"Host\""
par Aloha.host[196] arrrate 0.2
par Aloha.host[196] packet_size 1B
attr unit B
par Aloha.host[196] x 2.79031m
attr unit m
par Aloha.host[196] y 85.3622m
attr unit m
par Aloha.host[196] txrate 1000Bps
attr unit Bps
par Aloha.host[197] typename "\"Host\""
par Aloha.host[197] arrrate 0.2
par Aloha.host[197] packet_size 1B
attr unit B
par Aloha.host[197] x 46.8724m
attr unit m
par Aloha.host[197] y 145.711m
attr unit m
par Aloha.host[197] txrate 1000Bps
attr unit Bps
par Aloha.host[198] typename "\"Host\""
par Aloha.host[198] arrrate 0.2
par Aloha.host[198] packet_size 1B
attr unit B
par Aloha.host[198] x 123.356m
attr unit m
par Aloha.host[198] y 151.267m
attr unit m
par Aloha.host[198] txrate 1000Bps
attr unit Bps
par Aloha.host[199] typename "\"Host\""
par Aloha.host[199] arrrate 0.2
par Aloha.host[199] packet_size 1B
attr unit B
par Aloha.host[199] x 189.803m
attr unit m
par Aloha.host[199] y 79.5223m
attr unit m
par Aloha.host[199] txrate 1000Bps
attr unit Bps
par Aloha.host[200] typename "\"Host\""
par Aloha.host[200] arrrate 0.2
par Aloha.host[200] packet_size 1B
attr unit B
par Aloha.host[200] x 190.035m
attr unit m
par Aloha.host[200] y 185.04m
attr unit m
par Aloha.host[200] txrate 1000Bps
attr unit Bps
par Aloha.host[201] typename "\"Host\""
par Aloha.host[201] arrrate 0.2
par Aloha.host[201] packet_size 1B
attr unit B
par Aloha.host[201] x 111.331m
attr unit m
par Aloha.host[201] y 40.7021m
attr unit m
par Aloha.host[201] txrate 1000Bps
attr unit Bps
par Aloha.host[202] typename "\"Host\""
par Aloha.host[202] arrrate 0.2
par Aloha.host[202] packet_size 1B
attr unit B
par Aloha.host[202] x 183.121m
attr unit m
par Aloha.host[202] y 1.60054m
attr unit m
par Aloha.host[202] txrate 1000Bps
attr unit Bps
par Aloha.host[203] typename "\"Host\""
par Aloha.host[203] arrrate 0.2
par Aloha.host[203] packet_size 1B
attr unit B
par Aloha.host[203] x 128.313m
attr unit m
par Aloha.host[203] y 185.27m
attr unit m
par Aloha.host[203] txrate 1000Bps
attr unit Bps
par Aloha.host[204] typename "\"Host\""
par Aloha.host[204] arrrate 0.2
par Aloha.host[204] packet_size 1B
attr unit B
par Aloha.host[204] x 78.0015m
attr unit m
par Aloha.host[204] y 58.9023m
attr unit m
par Aloha.host[204] txrate 1000Bps
attr unit Bps
par Aloha.host[205] typename "\"Host\""
par Aloha.host[205] arrrate 0.2
par Aloha.host[205] packet_size 1B
attr unit B
par Aloha.host[205] x 97.1981m
attr unit m
par Aloha.host[205] y 33.3903m
attr unit m
par Aloha.host[205] txrate 1000Bps
attr unit Bps
par Aloha.host[206] typename "\"Host\""
par Aloha.host[206] arrrate 0.2
par Aloha.host[206] packet_size 1B
attr unit B
par Aloha.host[206] x 120.862m
attr unit m
par Aloha.host[206] y 4.82033m
attr unit m
par Aloha.host[206] txrate 1000Bps
attr unit Bps
par Aloha.host[207] typename "\"Host\""
par Aloha.host[207] arrrate 0.2
par Aloha.host[207] packet_size 1B
attr unit B
par Aloha.host[207] x 109.91m
attr unit m
par Aloha.host[207] y 90.4003m
attr unit m
par Aloha.host[207] txrate 1000Bps
attr unit Bps
par Aloha.host[208] typename "\"Host\""
par Aloha.host[208] arrrate 0.2
par Aloha.host[208] packet_size 1B
attr unit B
par Aloha.host[208] x 185.236m
attr unit m
par Aloha.host[208] y 161.668m
attr unit m
par Aloha.host[208] txrate 1000Bps
attr unit Bps
par Aloha.host[209] typename "\"Host\""
par Aloha.host[209] arrrate 0.2
par Aloha.host[209] packet_size 1B
attr unit B
par Aloha.host[209] x 183.747m
attr unit m
par Aloha.host[209] y 73.6754m
attr unit m
par Aloha.host[209] txrate 1000Bps
attr unit Bps
par Aloha.host[210] typename "\"Host\""
par Aloha.host[210] arrrate 0.2
par Aloha.host[210] packet_size 1B
attr unit B
par Aloha.host[210] x 78.9751m
attr unit m
par Aloha.host[210] y 121.841m
attr unit m
par Aloha.host[210] txrate 1000Bps
attr unit Bps
par Aloha.host[211] typename "\"Host\""
par Aloha.host[211] arrrate 0.2
par Aloha.host[211] packet_size 1B
attr unit B
par Aloha.host[211] x 192.653m
attr unit m
par Aloha.host[211] y 6.96954m
attr unit m
par Aloha.host[211] txrate 1000Bps
attr unit Bps
par Aloha.host[212] typename "\"Host\""
par Aloha.host[212] arrrate 0.2
par Aloha.host[212] packet_size 1B
attr unit B
par Aloha.host[212] x 34.7911m
attr unit m
par Aloha.host[212] y 70.9154m
attr unit m
par Aloha.host[212] txrate 1000Bps
attr unit Bps
par Aloha.host[213] typename "\"Host\""
par Aloha.host[213] arrrate 0.2
par Aloha.host[213] packet_size 1B
attr unit B
par Aloha.host[213] x 25.2659m
attr unit m
par Aloha.host[213] y 15.704m
attr unit m
par Aloha.host[213] txrate 1000Bps
attr unit Bps
par Aloha.host[214] typename "\"Host\""
par Aloha.host[214] arrrate 0.2
par Aloha.host[214] packet_size 1B
attr unit B
par Aloha.host[214] x 27.0158m
attr unit m
par Aloha.host[214] y 138.637m
attr unit m
par Aloha.host[214] txrate 1000Bps
attr unit Bps
par Aloha.host[215] typename "\"Host\""
par Aloha.host[215] arrrate 0.2
par Aloha.host[215] packet_size 1B
attr unit B
par Aloha.host[215] x 101.132m
attr unit m
par Aloha.host[215] y 2.54253m
attr unit m
par Aloha.host[215] txrate 1000Bps
attr unit Bps
par Aloha.host[216] typename "\"Host\""
par Aloha.host[216] arrrate 0.2
par Aloha.host[216] packet_size 1B
attr unit B
par Aloha.host[216] x 4.30496m
attr unit m
par Aloha.host[216] y 91.9091m
attr unit m
par Aloha.host[216] txrate 1000Bps
attr unit Bps
par Aloha.host[217] typename "\"Host\""
par Aloha.host[217] arrrate 0.2
par Aloha.host[217] packet_size 1B
attr unit B
par Aloha.host[217] x 189.594m
attr unit m
par Aloha.host[217] y 192.263m
attr unit m
par Aloha.host[217] txrate 1000Bps
attr unit Bps
par Aloha.host[218] typename "\"Host\""
par Aloha.host[218] arrrate 0.2
par Aloha.host[218] packet_size 1B
attr unit B
par Aloha.host[218] x 165.423m
attr unit m
par Aloha.host[218] y 66.837m
attr unit m
par Aloha.host[218] txrate 1000Bps
attr unit Bps
par Aloha.host[219] typename "\"Host\""
par Aloha.host[219] arrrate 0.2
par Aloha.host[219] packet_size 1B
attr unit B
par Aloha.host[219] x 3.0038m
attr unit m
par Aloha.host[219] y 94.4167m
attr unit m
par Aloha.host[219] txrate 1000Bps
attr unit Bps
par Aloha.host[220] typename "\"Host\""
par Aloha.host[220] arrrate 0.2
par Aloha.host[220] packet_size 1B
attr unit B
par Aloha.host[220] x 35.2393m
attr unit m
par Aloha.host[220] y 21.0783m
attr unit m
par Aloha.host[220] txrate 1000Bps
attr unit Bps
par Aloha.host[221] typename "\"Host\""
par Aloha.host[221] arrrate 0.2
par Aloha.host[221] packet_size 1B
attr unit B
par Aloha.host[221] x 66.4127m
attr unit m
par Aloha.host[221] y 100.615m
attr unit m
par Aloha.host[221] txrate 1000Bps
attr unit Bps
par Aloha.host[222] typename "\"Host\""
par Aloha.host[222] arrrate 0.2
par Aloha.host[222] packet_size 1B
attr unit B
par Aloha.host[222] x 26.1994m
attr unit m
par Aloha.host[222] y 177.138m
attr unit m
par Aloha.host[222] txrate 1000Bps
attr unit Bps
par Aloha.host[223] typename "\"Host\""
par Aloha.host[223] arrrate 0.2
par Aloha.host[223] packet_size 1B
attr unit B
par Aloha.host[223] x 161.898m
attr unit m
par Aloha.host[223] y 106.875m
attr unit m
par Aloha.host[223] txrate 1000Bps
attr unit Bps
par Aloha.host[224] typename "\"Host\""
par Aloha.host[224] arrrate 0.2
par Aloha.host[224] packet_size 1B
attr unit B
par Aloha.host[224] x 68.9473m
attr unit m
par Aloha.host[224] y 56.2954m
attr unit m
par Aloha.host[224] txrate 1000Bps
attr unit Bps
par Aloha.host[225] typename "\"Host\""
par Aloha.host[225] arrrate 0.2
par Aloha.host[225] packet_size 1B
attr unit B
par Aloha.host[225] x 188.021m
attr unit m
par Aloha.host[225] y 70.9169m
attr unit m
par Aloha.host[225] txrate 1000Bps
attr unit Bps
par Aloha.host[226] typename "\"Host\""
par Aloha.host[226] arrrate 0.2
par Aloha.host[226] packet_size 1B
attr unit B
par Aloha.host[226] x 116.403m
attr unit m
par Aloha.host[226] y 179.256m
attr unit m
par Aloha.host[226] txrate 1000Bps
attr unit Bps
par Aloha.host[227] typename "\"Host\""
par Aloha.host[227] arrrate 0.2
par Aloha.host[227] packet_size 1B
attr unit B
par Aloha.host[227] x 175.766m
attr unit m
par Aloha.host[227] y 48.2978m
attr unit m
par Aloha.host[227] txrate 1000Bps
attr unit Bps
par Aloha.host[228] typename "\"Host\""
par Aloha.host[228] arrrate 0.2
par Aloha.host[228] packet_size 1B
attr unit B
par Aloha.host[228] x 168.947m
attr unit m
par Aloha.host[228] y 4.77682m
attr unit m
par Aloha.host[228] txrate 1000Bps
attr unit Bps
par Aloha.host[229] typename "\"Host\""
par Aloha.host[229] arrrate 0.2
par Aloha.host[229] packet_size 1B
attr unit B
par Aloha.host[229] x 181.078m
attr unit m
par Aloha.host[229] y 193.145m
attr unit m
par Aloha.host[229] txrate 1000Bps
attr unit Bps
par Aloha.host[230] typename "\"Host\""
par Aloha.host[230] arrrate 0.2
par Aloha.host[230] packet_size 1B
attr unit B
par Aloha.host[230] x 91.9761m
attr unit m
par Aloha.host[230] y 85.9936m
attr unit m
par Aloha.host[230] txrate 1000Bps
attr unit Bps
par Aloha.host[231] typename "\"Host\""
par Aloha.host[231] arrrate 0.2
par Aloha.host[231] packet_size 1B
attr unit B
par Aloha.host[231] x 109.269m
attr unit m
par Aloha.host[231] y 69.2577m
attr unit m
par Aloha.host[231] txrate 1000Bps
attr unit Bps
par Aloha.host[232] typename "\"Host\""
par Aloha.host[232] arrrate 0.2
par Aloha.host[232] packet_size 1B
attr unit B
par Aloha.host[232] x 159.721m
attr unit m
par Aloha.host[232] y 115.414m
attr unit m
par Aloha.host[232] txrate 1000Bps
attr unit Bps
par Aloha.host[233] typename "\"Host\""
par Aloha.host[233] arrrate 0.2
par Aloha.host[233] packet_size 1B
attr unit B
par Aloha.host[233] x 57.1438m
attr unit m
par Aloha.host[233] y 25.3052m
attr unit m
par Aloha.host[233] txrate 1000Bps
attr unit Bps
par Aloha.host[234] typename "\"Host\""
par Aloha.host[234] arrrate 0.2
par Aloha.host[234] packet_size 1B
attr unit B
par Aloha.host[234] x 98.0507m
attr unit m
par Aloha.host[234] y 190.009m
attr unit m
par Aloha.host[234] txrate 1000Bps
attr unit Bps
par Aloha.host[235] typename "\"Host\""
par Aloha.host[235] arrrate 0.2
par Aloha.host[235] packet_size 1B
attr unit B
par Aloha.host[235] x 119.822m
attr unit m
par Aloha.host[235] y 62.7222m
attr unit m
par Aloha.host[235] txrate 1000Bps
attr unit Bps
par Aloha.host[236] typename "\"Host\""
par Aloha.host[236] arrrate 0.2
par Aloha.host[236] packet_size 1B
attr unit B
par Aloha.host[236] x 3.10665m
attr unit m
par Aloha.host[236] y 190.566m
attr unit m
par Aloha.host[236] txrate 1000Bps
attr unit Bps
par Aloha.host[237] typename "\"Host\""
par Aloha.host[237] arrrate 0.2
par Aloha.host[237] packet_size 1B
attr unit B
par Aloha.host[237] x 118.696m
attr unit m
par Aloha.host[237] y 43.6786m
attr unit m
par Aloha.host[237] txrate 1000Bps
attr unit Bps
par Aloha.host[238] typename "\"Host\""
par Aloha.host[238] arrrate 0.2
par Aloha.host[238] packet_size 1B
attr unit B
par Aloha.host[238] x 86.7353m
attr unit m
par Aloha.host[238] y 49.74m
attr unit m
par Aloha.host[238] txrate 1000Bps
attr unit Bps
par Aloha.host[239] typename "\"Host\""
par Aloha.host[239] arrrate 0.2
par Aloha.host[239] packet_size 1B
attr unit B
par Aloha.host[239] x 161.472m
attr unit m
par Aloha.host[239] y 172.76m
attr unit m
par Aloha.host[239] txrate 1000Bps
attr unit Bps
par Aloha.host[240] typename "\"Host\""
par Aloha.host[240] arrrate 0.2
par Aloha.host[240] packet_size 1B
attr unit B
par Aloha.host[240] x 63.049m
attr unit m
par Aloha.host[240] y 47.0537m
attr unit m
par Aloha.host[240] txrate 1000Bps
attr unit Bps
par Aloha.host[241] typename "\"Host\""
par Aloha.host[241] arrrate 0.2
par Aloha.host[241] packet_size 1B
attr unit B
par Aloha.host[241] x 178.578m
attr unit m
par Aloha.host[241] y 163.02m
attr unit m
par Aloha.host[241] txrate 1000Bps
attr unit Bps
par Aloha.host[242] typename "\"Host\""
par Aloha.host[242] arrrate 0.2
par Aloha.host[242] packet_size 1B
attr unit B
par Aloha.host[242] x 115.571m
attr unit m
par Aloha.host[242] y 108.779m
attr unit m
par Aloha.host[242] txrate 1000Bps
attr unit Bps
par Aloha.host[243] typename "\"Host\""
par Aloha.host[243] arrrate 0.2
par Aloha.host[243] packet_size 1B
attr unit B
par Aloha.host[243] x 36.802m
attr unit m
par Aloha.host[243] y 38.2521m
attr unit m
par Aloha.host[243] txrate 1000Bps
attr unit Bps
par Aloha.host[244] typename "\"Host\""
par Aloha.host[244] arrrate 0.2
par Aloha.host[244] packet_size 1B
attr unit B
par Aloha.host[244] x 157.586m
attr unit m
par Aloha.host[244] y 117.768m
attr unit m
par Aloha.host[244] txrate 1000Bps
attr unit Bps
par Aloha.host[245] typename "\"Host\""
par Aloha.host[245] arrrate 0.2
par Aloha.host[245] packet_size 1B
attr unit B
par Aloha.host[245] x 122.406m
attr unit m
par Aloha.host[245] y 9.62736m
attr unit m
par Aloha.host[245] txrate 1000Bps
attr unit Bps
par Aloha.host[246] typename "\"Host\""
par Aloha.host[246] arrrate 0.2
par Aloha.host[246] packet_size 1B
attr unit B
par Aloha.host[246] x 10.7819m
attr unit m
par Aloha.host[246] y 3.1746m
attr unit m
par Aloha.host[246] txrate 1000Bps
attr unit Bps
par Aloha.host[247] typename "\"Host\""
par Aloha.host[247] arrrate 0.2
par Aloha.host[247] packet_size 1B
attr unit B
par Aloha.host[247] x 84.0387m
attr unit m
par Aloha.host[247] y 9.9422m
attr unit m
par Aloha.host[247] txrate 1000Bps
attr unit Bps
par Aloha.host[248] typename "\"Host\""
par Aloha.host[248] arrrate 0.2
par Aloha.host[248] packet_size 1B
attr unit B
par Aloha.host[248] x 135.814m
attr unit m
par Aloha.host[248] y 79.8831m
attr unit m
par Aloha.host[248] txrate 1000Bps
attr unit Bps
par Aloha.host[249] typename "\"Host\""
par Aloha.host[249] arrrate 0.2
par Aloha.host[249] packet_size 1B
attr unit B
par Aloha.host[249] x 183.72m
attr unit m
par Aloha.host[249] y 115.381m
attr unit m
par Aloha.host[249] txrate 1000Bps
attr unit Bps
par Aloha.host[250] typename "\"Host\""
par Aloha.host[250] arrrate 0.2
par Aloha.host[250] packet_size 1B
attr unit B
par Aloha.host[250] x 0.0804046m
attr unit m
par Aloha.host[250] y 173.503m
attr unit m
par Aloha.host[250] txrate 1000Bps
attr unit Bps
par Aloha.host[251] typename "\"Host\""
par Aloha.host[251] arrrate 0.2
par Aloha.host[251] packet_size 1B
attr unit B
par Aloha.host[251] x 195.352m
attr unit m
par Aloha.host[251] y 157.232m
attr unit m
par Aloha.host[251] txrate 1000Bps
attr unit Bps
par Aloha.host[252] typename "\"Host\""
par Aloha.host[252] arrrate 0.2
par Aloha.host[252] packet_size 1B
attr unit B
par Aloha.host[252] x 75.3161m
attr unit m
par Aloha.host[252] y 50.9405m
attr unit m
par Aloha.host[252] txrate 1000Bps
attr unit Bps
par Aloha.host[253] typename "\"Host\""
par Aloha.host[253] arrrate 0.2
par Aloha.host[253] packet_size 1B
attr unit B
par Aloha.host[253] x 194.757m
attr unit m
par Aloha.host[253] y 16.451m
attr unit m
par Aloha.host[253] txrate 1000Bps
attr unit Bps
par Aloha.host[254] typename "\"Host\""
par Aloha.host[254] arrrate 0.2
par Aloha.host[254] packet_size 1B
attr unit B
par Aloha.host[254] x 120.943m
attr unit m
par Aloha.host[254] y 31.5512m
attr unit m
par Aloha.host[254] txrate 1000Bps
attr unit Bps
par Aloha.host[255] typename "\"Host\""
par Aloha.host[255] arrrate 0.2
par Aloha.host[255] packet_size 1B
attr unit B
par Aloha.host[255] x 165.769m
attr unit m
par Aloha.host[255] y 41.8986m
attr unit m
par Aloha.host[255] txrate 1000Bps
attr unit Bps
par Aloha.host[256] typename "\"Host\""
par Aloha.host[256] arrrate 0.2
par Aloha.host[256] packet_size 1B
attr unit B
par Aloha.host[256] x 114.942m
attr unit m
par Aloha.host[256] y 83.4766m
attr unit m
par Aloha.host[256] txrate 1000Bps
attr unit Bps
par Aloha.host[257] typename "\"Host\""
par Aloha.host[257] arrrate 0.2
par Aloha.host[257] packet_size 1B
attr unit B
par Aloha.host[257] x 125.615m
attr unit m
par Aloha.host[257] y 69.538m
attr unit m
par Aloha.host[257] txrate 1000Bps
attr unit Bps
par Aloha.host[258] typename "\"Host\""
par Aloha.host[258] arrrate 0.2
par Aloha.host[258] packet_size 1B
attr unit B
par Aloha.host[258] x 57.1153m
attr unit m
par Aloha.host[258] y 139.977m
attr unit m
par Aloha.host[258] txrate 1000Bps
attr unit Bps
par Aloha.host[259] typename "\"Host\""
par Aloha.host[259] arrrate 0.2
par Aloha.host[259] packet_size 1B
attr unit B
par Aloha.host[259] x 117.367m
attr unit m
par Aloha.host[259] y 139.502m
attr unit m
par Aloha.host[259] txrate 1000Bps
attr unit Bps
par Aloha.host[260] typename "\"Host\""
par Aloha.host[260] arrrate 0.2
par Aloha.host[260] packet_size 1B
attr unit B
par Aloha.host[260] x 150.004m
attr unit m
par Aloha.host[260] y 14.9448m
attr unit m
par Aloha.host[260] txrate 1000Bps
attr unit Bps
par Aloha.host[261] typename "\"Host\""
par Aloha.host[261] arrrate 0.2
par Aloha.host[261] packet_size 1B
attr unit B
par Aloha.host[261] x 171.663m
attr unit m
par Aloha.host[261] y 7.29394m
attr unit m
par Aloha.host[261] txrate 1000Bps
attr unit Bps
par Aloha.host[262] typename "\"Host\""
par Aloha.host[262] arrrate 0.2
par Aloha.host[262] packet_size 1B
attr unit B
par Aloha.host[262] x 151.016m
attr unit m
par Aloha.host[262] y 157.88m
attr unit m
par Aloha.host[262] txrate 1000Bps
attr unit Bps
par Aloha.host[263] typename "\"Host\""
par Aloha.host[263] arrrate 0.2
par Aloha.host[263] packet_size 1B
attr unit B
par Aloha.host[263] x 139.611m
attr unit m
par Aloha.host[263] y 180.106m
attr unit m
par Aloha.host[263] txrate 1000Bps
attr unit Bps
par Aloha.host[264] typename "\"Host\""
par Aloha.host[264] arrrate 0.2
par Aloha.host[264] packet_size 1B
attr unit B
par Aloha.host[264] x 172.896m
attr unit m
par Aloha.host[264] y 0.932663m
attr unit m
par Aloha.host[264] txrate 1000Bps
attr unit Bps
par Aloha.host[265] typename "\"Host\""
par Aloha.host[265] arrrate 0.2
par Aloha.host[265] packet_size 1B
attr unit B
par Aloha.host[265] x 64.5362m
attr unit m
par Aloha.host[265] y 52.8407m
attr unit m
par Aloha.host[265] txrate 1000Bps
attr unit Bps
par Aloha.host[266] typename "\"Host\""
par Aloha.host[266] arrrate 0.2
par Aloha.host[266] packet_size 1B
attr unit B
par Aloha.host[266] x 134.158m
attr unit m
par Aloha.host[266] y 93.4755m
attr unit m
par Aloha.host[266] txrate 1000Bps
attr unit Bps
par Aloha.host[267] typename "\"Host\""
par Aloha.host[267] arrrate 0.2
par Aloha.host[267] packet_size 1B
attr unit B
par Aloha.host[267] x 90.1748m
attr unit m
par Aloha.host[267] y 71.9632m
attr unit m
par Aloha.host[267] txrate 1000Bps
attr unit Bps
par Aloha.host[268] typename "\"Host\""
par Aloha.host[268] arrrate 0.2
par Aloha.host[268] packet_size 1B
attr unit B
par Aloha.host[268] x 76.4206m
attr unit m
par Aloha.host[268] y 48.0435m
attr unit m
par Aloha.host[268] txrate 1000Bps
attr unit Bps
par Aloha.host[269] typename "\"Host\""
par Aloha.host[269] arrrate 0.2
par Aloha.host[269] packet_size 1B
attr unit B
par Aloha.host[269] x 82.1623m
attr unit m
par Aloha.host[269] y 4.63375m
attr unit m
par Aloha.host[269] txrate 1000Bps
attr unit Bps
par Aloha.host[270] typename "\"Host\""
par Aloha.host[270] arrrate 0.2
par Aloha.host[270] packet_size 1B
attr unit B
par Aloha.host[270] x 80.2959m
attr unit m
par Aloha.host[270] y 106.334m
attr unit m
par Aloha.host[270] txrate 1000Bps
attr unit Bps
par Aloha.host[271] typename "\"Host\""
par Aloha.host[271] arrrate 0.2
par Aloha.host[271] packet_size 1B
attr unit B
par Aloha.host[271] x 63.4768m
attr unit m
par Aloha.host[271] y 26.0389m
attr unit m
par Aloha.host[271] txrate 1000Bps
attr unit Bps
par Aloha.host[272] typename "\"Host\""
par Aloha.host[272] arrrate 0.2
par Aloha.host[272] packet_size 1B
attr unit B
par Aloha.host[272] x 124.384m
attr unit m
par Aloha.host[272] y 112.292m
attr unit m
par Aloha.host[272] txrate 1000Bps
attr unit Bps
par Aloha.host[273] typename "\"Host\""
par Aloha.host[273] arrrate 0.2
par Aloha.host[273] packet_size 1B
attr unit B
par Aloha.host[273] x 86.0495m
attr unit m
par Aloha.host[273] y 33.5662m
attr unit m
par Aloha.host[273] txrate 1000Bps
attr unit Bps
par Aloha.host[274] typename "\"Host\""
par Aloha.host[274] arrrate 0.2
par Aloha.host[274] packet_size 1B
attr unit B
par Aloha.host[274] x 194.76m
attr unit m
par Aloha.host[274] y 84.215m
attr unit m
par Aloha.host[274] txrate 1000Bps
attr unit Bps
par Aloha.host[275] typename "\"Host\""
par Aloha.host[275] arrrate 0.2
par Aloha.host[275] packet_size 1B
attr unit B
par Aloha.host[275] x 135.56m
attr unit m
par Aloha.host[275] y 136.938m
attr unit m
par Aloha.host[275] txrate 1000Bps
attr unit Bps
par Aloha.host[276] typename "\"Host\""
par Aloha.host[276] arrrate 0.2
par Aloha.host[276] packet_size 1B
attr unit B
par Aloha.host[276] x 39.714m
attr unit m
par Aloha.host[276] y 54.7801m
attr unit m
par Aloha.host[276] txrate 1000Bps
attr unit Bps
par Aloha.host[277] typename "\"Host\""
par Aloha.host[277] arrrate 0.2
par Aloha.host[277] packet_size 1B
attr unit B
par Aloha.host[277] x 85.3402m
attr unit m
par Aloha.host[277] y 1.99995m
attr unit m
par Aloha.host[277] txrate 1000Bps
attr unit Bps
par Aloha.host[278] typename "\"Host\""
par Aloha.host[278] arrrate 0.2
par Aloha.host[278] packet_size 1B
attr unit B
par Aloha.host[278] x 68.6692m
attr unit m
par Aloha.host[278] y 43.9733m
attr unit m
par Aloha.host[278] txrate 1000Bps
attr unit Bps
par Aloha.host[279] typename "\"Host\""
par Aloha.host[279] arrrate 0.2
par Aloha.host[279] packet_size 1B
attr unit B
par Aloha.host[279] x 159.528m
attr unit m
par Aloha.host[279] y 6.39124m
attr unit m
par Aloha.host[279] txrate 1000Bps
attr unit Bps
par Aloha.host[280] typename "\"Host\""
par Aloha.host[280] arrrate 0.2
par Aloha.host[280] packet_size 1B
attr unit B
par Aloha.host[280] x 176m
attr unit m
par Aloha.host[280] y 186.974m
attr unit m
par Aloha.host[280] txrate 1000Bps
attr unit Bps
par Aloha.host[281] typename "\"Host\""
par Aloha.host[281] arrrate 0.2
par Aloha.host[281] packet_size 1B
attr unit B
par Aloha.host[281] x 180.768m
attr unit m
par Aloha.host[281] y 156.418m
attr unit m
par Aloha.host[281] txrate 1000Bps
attr unit Bps
par Aloha.host[282] typename "\"Host\""
par Aloha.host[282] arrrate 0.2
par Aloha.host[282] packet_size 1B
attr unit B
par Aloha.host[282] x 132.544m
attr unit m
par Aloha.host[282] y 103.519m
attr unit m
par Aloha.host[282] txrate 1000Bps
attr unit Bps
par Aloha.host[283] typename "\"Host\""
par Aloha.host[283] arrrate 0.2
par Aloha.host[283] packet_size 1B
attr unit B
par Aloha.host[283] x 54.0417m
attr unit m
par Aloha.host[283] y 3.29255m
attr unit m
par Aloha.host[283] txrate 1000Bps
attr unit Bps
par Aloha.host[284] typename "\"Host\""
par Aloha.host[284] arrrate 0.2
par Aloha.host[284] packet_size 1B
attr unit B
par Aloha.host[284] x 50.4733m
attr unit m
par Aloha.host[284] y 59.76m
attr unit m
par Aloha.host[284] txrate 1000Bps
attr unit Bps
par Aloha.host[285] typename "\"Host\""
par Aloha.host[285] arrrate 0.2
par Aloha.host[285] packet_size 1B
attr unit B
par Aloha.host[285] x 170.98m
attr unit m
par Aloha.host[285] y 108.144m
attr unit m
par Aloha.host[285] txrate 1000Bps
attr unit Bps
par Aloha.host[286] typename "\"Host\""
par Aloha.host[286] arrrate 0.2
par Aloha.host[286] packet_size 1B
attr unit B
par Aloha.host[286] x 105.543m
attr unit m
par Aloha.host[286] y 171.977m
attr unit m
par Aloha.host[286] txrate 1000Bps
attr unit Bps
par Aloha.host[287] typename "\"Host\""
par Aloha.host[287] arrrate 0.2
par Aloha.host[287] packet_size 1B
attr unit B
par Aloha.host[287] x 160.432m
attr unit m
par Aloha.host[287] y 37.0229m
attr unit m
par Aloha.host[287] txrate 1000Bps
attr unit Bps
par Aloha.host[288] typename "\"Host\""
par Aloha.host[288] arrrate 0.2
par Aloha.host[288] packet_size 1B
attr unit B
par Aloha.host[288] x 114.498m
attr unit m
par Aloha.host[288] y 16.7093m
attr unit m
par Aloha.host[288] txrate 1000Bps
attr unit Bps
par Aloha.host[289] typename "\"Host\""
par Aloha.host[289] arrrate 0.2
par Aloha.host[289] packet_size 1B
attr unit B
par Aloha.host[289] x 146.629m
attr unit m
par Aloha.host[289] y 8.85446m
attr unit m
par Aloha.host[289] txrate 1000Bps
attr unit Bps
par Aloha.host[290] typename "\"Host\""
par Aloha.host[290] arrrate 0.2
par Aloha.host[290] packet_size 1B
attr unit B
par Aloha.host[290] x 103.802m
attr unit m
par Aloha.host[290] y 88.7616m
attr unit m
par Aloha.host[290] txrate 1000Bps
attr unit Bps
par Aloha.host[291] typename "\"Host\""
par Aloha.host[291] arrrate 0.2
par Aloha.host[291] packet_size 1B
attr unit B
par Aloha.host[291] x 154.177m
attr unit m
par Aloha.host[291] y 3.86375m
attr unit m
par Aloha.host[291] txrate 1000Bps
attr unit Bps
par Aloha.host[292] typename "\"Host\""
par Aloha.host[292] arrrate 0.2
par Aloha.host[292] packet_size 1B
attr unit B
par Aloha.host[292] x 113.772m
attr unit m
par Aloha.host[292] y 13.4064m
attr unit m
par Aloha.host[292] txrate 1000Bps
attr unit Bps
par Aloha.host[293] typename "\"Host\""
par Aloha.host[293] arrrate 0.2
par Aloha.host[293] packet_size 1B
attr unit B
par Aloha.host[293] x 93.142m
attr unit m
par Aloha.host[293] y 162.354m
attr unit m
par Aloha.host[293] txrate 1000Bps
attr unit Bps
par Aloha.host[294] typename "\"Host\""
par Aloha.host[294] arrrate 0.2
par Aloha.host[294] packet_size 1B
attr unit B
par Aloha.host[294] x 68.5378m
attr unit m
par Aloha.host[294] y 127.258m
attr unit m
par Aloha.host[294] txrate 1000Bps
attr unit Bps
par Aloha.host[295] typename "\"Host\""
par Aloha.host[295] arrrate 0.2
par Aloha.host[295] packet_size 1B
attr unit B
par Aloha.host[295] x 13.6419m
attr unit m
par Aloha.host[295] y 154.57m
attr unit m
par Aloha.host[295] txrate 1000Bps
attr unit Bps
par Aloha.host[296] typename "\"Host\""
par Aloha.host[296] arrrate 0.2
par Aloha.host[296] packet_size 1B
attr unit B
par Aloha.host[296] x 75.5848m
attr unit m
par Aloha.host[296] y 141.136m
attr unit m
par Aloha.host[296] txrate 1000Bps
attr unit Bps
par Aloha.host[297] typename "\"Host\""
par Aloha.host[297] arrrate 0.2
par Aloha.host[297] packet_size 1B
attr unit B
par Aloha.host[297] x 15.9252m
attr unit m
par Aloha.host[297] y 47.6422m
attr unit m
par Aloha.host[297] txrate 1000Bps
attr unit Bps
par Aloha.host[298] typename "\"Host\""
par Aloha.host[298] arrrate 0.2
par Aloha.host[298] packet_size 1B
attr unit B
par Aloha.host[298] x 196.563m
attr unit m
par Aloha.host[298] y 8.88359m
attr unit m
par Aloha.host[298] txrate 1000Bps
attr unit Bps
par Aloha.host[299] typename "\"Host\""
par Aloha.host[299] arrrate 0.2
par Aloha.host[299] packet_size 1B
attr unit B
par Aloha.host[299] x 36.3226m
attr unit m
par Aloha.host[299] y 56.2434m
attr unit m
par Aloha.host[299] txrate 1000Bps
attr unit Bps
par Aloha.host[300] typename "\"Host\""
par Aloha.host[300] arrrate 0.2
par Aloha.host[300] packet_size 1B
attr unit B
par Aloha.host[300] x 162.372m
attr unit m
par Aloha.host[300] y 173.018m
attr unit m
par Aloha.host[300] txrate 1000Bps
attr unit Bps
par Aloha.host[301] typename "\"Host\""
par Aloha.host[301] arrrate 0.2
par Aloha.host[301] packet_size 1B
attr unit B
par Aloha.host[301] x 174.992m
attr unit m
par Aloha.host[301] y 14.6247m
attr unit m
par Aloha.host[301] txrate 1000Bps
attr unit Bps
par Aloha.host[302] typename "\"Host\""
par Aloha.host[302] arrrate 0.2
par Aloha.host[302] packet_size 1B
attr unit B
par Aloha.host[302] x 137.683m
attr unit m
par Aloha.host[302] y 132.066m
attr unit m
par Aloha.host[302] txrate 1000Bps
attr unit Bps
par Aloha.host[303] typename "\"Host\""
par Aloha.host[303] arrrate 0.2
par Aloha.host[303] packet_size 1B
attr unit B
par Aloha.host[303] x 113.899m
attr unit m
par Aloha.host[303] y 37.4757m
attr unit m
par Aloha.host[303] txrate 1000Bps
attr unit Bps
par Aloha.host[304] typename "\"Host\""
par Aloha.host[304] arrrate 0.2
par Aloha.host[304] packet_size 1B
attr unit B
par Aloha.host[304] x 32.1943m
attr unit m
par Aloha.host[304] y 104.457m
attr unit m
par Aloha.host[304] txrate 1000Bps
attr unit Bps
par Aloha.host[305] typename "\"Host\""
par Aloha.host[305] arrrate 0.2
par Aloha.host[305] packet_size 1B
attr unit B
par Aloha.host[305] x 93.376m
attr unit m
par Aloha.host[305] y 180.776m
attr unit m
par Aloha.host[305] txrate 1000Bps
attr unit Bps
par Aloha.host[306] typename "\"Host\""
par Aloha.host[306] arrrate 0.2
par Aloha.host[306] packet_size 1B
attr unit B
par Aloha.host[306] x 69.0344m
attr unit m
par Aloha.host[306] y 95.0305m
attr unit m
par Aloha.host[306] txrate 1000Bps
attr unit Bps
par Aloha.host[307] typename "\"Host\""
par Aloha.host[307] arrrate 0.2
par Aloha.host[307] packet_size 1B
attr unit B
par Aloha.host[307] x 45.008m
attr unit m
par Aloha.host[307] y 169.404m
attr unit m
par Aloha.host[307] txrate 1000Bps
attr unit Bps
par Aloha.host[308] typename "\"Host\""
par Aloha.host[308] arrrate 0.2
par Aloha.host[308] packet_size 1B
attr unit B
par Aloha.host[308] x 118.502m
attr unit m
par Aloha.host[308] y 167.756m
attr unit m
par Aloha.host[308] txrate 1000Bps
attr unit Bps
par Aloha.host[309] typename "\"Host\""
par Aloha.host[309] arrrate 0.2
par Aloha.host[309] packet_size 1B
attr unit B
par Aloha.host[309] x 62.454m
attr unit m
par Aloha.host[309] y 27.856m
attr unit m
par Aloha.host[309] txrate 1000Bps
attr unit Bps
par Aloha.host[310] typename "\"Host\""
par Aloha.host[310] arrrate 0.2
par Aloha.host[310] packet_size 1B
attr unit B
par Aloha.host[310] x 183.261m
attr unit m
par Aloha.host[310] y 108.061m
attr unit m
par Aloha.host[310] txrate 1000Bps
attr unit Bps
par Aloha.host[311] typename "\"Host\""
par Aloha.host[311] arrrate 0.2
par Aloha.host[311] packet_size 1B
attr unit B
par Aloha.host[311] x 181.927m
attr unit m
par Aloha.host[311] y 93.4171m
attr unit m
par Aloha.host[311] txrate 1000Bps
attr unit Bps
par Aloha.host[312] typename "\"Host\""
par Aloha.host[312] arrrate 0.2
par Aloha.host[312] packet_size 1B
attr unit B
par Aloha.host[312] x 51.4237m
attr unit m
par Aloha.host[312] y 43.7366m
attr unit m
par Aloha.host[312] txrate 1000Bps
attr unit Bps
par Aloha.host[313] typename "\"Host\""
par Aloha.host[313] arrrate 0.2
par Aloha.host[313] packet_size 1B
attr unit B
par Aloha.host[313] x 22.1783m
attr unit m
par Aloha.host[313] y 88.1657m
attr unit m
par Aloha.host[313] txrate 1000Bps
attr unit Bps
par Aloha.host[314] typename "\"Host\""
par Aloha.host[314] arrrate 0.2
par Aloha.host[314] packet_size 1B
attr unit B
par Aloha.host[314] x 38.5925m
attr unit m
par Aloha.host[314] y 96.0556m
attr unit m
par Aloha.host[314] txrate 1000Bps
attr unit Bps
par Aloha.host[315] typename "\"Host\""
[...]
par Aloha.host[922] packet_size 1B
attr unit B
par Aloha.host[922] x 28.4443m
attr unit m
par Aloha.host[922] y 92.1485m
attr unit m
par Aloha.host[922] txrate 1000Bps
attr unit Bps
par Aloha.host[923] typename "\"Host\""
par Aloha.host[923] arrrate 0.2
par Aloha.host[923] packet_size 1B
attr unit B
par Aloha.host[923] x 145.379m
attr unit m
par Aloha.host[923] y 14.2599m
attr unit m
par Aloha.host[923] txrate 1000Bps
attr unit Bps
par Aloha.host[924] typename "\"Host\""
par Aloha.host[924] arrrate 0.2
par Aloha.host[924] packet_size 1B
attr unit B
par Aloha.host[924] x 95.4026m
attr unit m
par Aloha.host[924] y 67.0297m
attr unit m
par Aloha.host[924] txrate 1000Bps
attr unit Bps
par Aloha.host[925] typename "\"Host\""
par Aloha.host[925] arrrate 0.2
par Aloha.host[925] packet_size 1B
attr unit B
par Aloha.host[925] x 89.7758m
attr unit m
par Aloha.host[925] y 122.013m
attr unit m
par Aloha.host[925] txrate 1000Bps
attr unit Bps
par Aloha.host[926] typename "\"Host\""
par Aloha.host[926] arrrate 0.2
par Aloha.host[926] packet_size 1B
attr unit B
par Aloha.host[926] x 177.2m
attr unit m
par Aloha.host[926] y 140.485m
attr unit m
par Aloha.host[926] txrate 1000Bps
attr unit Bps
par Aloha.host[927] typename "\"Host\""
par Aloha.host[927] arrrate 0.2
par Aloha.host[927] packet_size 1B
attr unit B
par Aloha.host[927] x 105.524m
attr unit m
par Aloha.host[927] y 173.961m
attr unit m
par Aloha.host[927] txrate 1000Bps
attr unit Bps
par Aloha.host[928] typename "\"Host\""
par Aloha.host[928] arrrate 0.2
par Aloha.host[928] packet_size 1B
attr unit B
par Aloha.host[928] x 81.8182m
attr unit m
par Aloha.host[928] y 1.10217m
attr unit m
par Aloha.host[928] txrate 1000Bps
attr unit Bps
par Aloha.host[929] typename "\"Host\""
par Aloha.host[929] arrrate 0.2
par Aloha.host[929] packet_size 1B
attr unit B
par Aloha.host[929] x 53.7784m
attr unit m
par Aloha.host[929] y 59.7414m
attr unit m
par Aloha.host[929] txrate 1000Bps
attr unit Bps
par Aloha.host[930] typename "\"Host\""
par Aloha.host[930] arrrate 0.2
par Aloha.host[930] packet_size 1B
attr unit B
par Aloha.host[930] x 14.4024m
attr unit m
par Aloha.host[930] y 149.829m
attr unit m
par Aloha.host[930] txrate 1000Bps
attr unit Bps
par Aloha.host[931] typename "\"Host\""
par Aloha.host[931] arrrate 0.2
par Aloha.host[931] packet_size 1B
attr unit B
par Aloha.host[931] x 83.6272m
attr unit m
par Aloha.host[931] y 172.663m
attr unit m
par Aloha.host[931] txrate 1000Bps
attr unit Bps
par Aloha.host[932] typename "\"Host\""
par Aloha.host[932] arrrate 0.2
par Aloha.host[932] packet_size 1B
attr unit B
par Aloha.host[932] x 5.1507m
attr unit m
par Aloha.host[932] y 179.34m
attr unit m
par Aloha.host[932] txrate 1000Bps
attr unit Bps
par Aloha.host[933] typename "\"Host\""
par Aloha.host[933] arrrate 0.2
par Aloha.host[933] packet_size 1B
attr unit B
par Aloha.host[933] x 58.2308m
attr unit m
par Aloha.host[933] y 79.8388m
attr unit m
par Aloha.host[933] txrate 1000Bps
attr unit Bps
par Aloha.host[934] typename "\"Host\""
par Aloha.host[934] arrrate 0.2
par Aloha.host[934] packet_size 1B
attr unit B
par Aloha.host[934] x 100.702m
attr unit m
par Aloha.host[934] y 87.6491m
attr unit m
par Aloha.host[934] txrate 1000Bps
attr unit Bps
par Aloha.host[935] typename "\"Host\""
par Aloha.host[935] arrrate 0.2
par Aloha.host[935] packet_size 1B
attr unit B
par Aloha.host[935] x 193.187m
attr unit m
par Aloha.host[935] y 77.4047m
attr unit m
par Aloha.host[935] txrate 1000Bps
attr unit Bps
par Aloha.host[936] typename "\"Host\""
par Aloha.host[936] arrrate 0.2
par Aloha.host[936] packet_size 1B
attr unit B
par Aloha.host[936] x 21.8766m
attr unit m
par Aloha.host[936] y 45.0164m
attr unit m
par Aloha.host[936] txrate 1000Bps
attr unit Bps
par Aloha.host[937] typename "\"Host\""
par Aloha.host[937] arrrate 0.2
par Aloha.host[937] packet_size 1B
attr unit B
par Aloha.host[937] x 134.608m
attr unit m
par Aloha.host[937] y 29.536m
attr unit m
par Aloha.host[937] txrate 1000Bps
attr unit Bps
par Aloha.host[938] typename "\"Host\""
par Aloha.host[938] arrrate 0.2
par Aloha.host[938] packet_size 1B
attr unit B
par Aloha.host[938] x 99.9865m
attr unit m
par Aloha.host[938] y 0.517498m
attr unit m
par Aloha.host[938] txrate 1000Bps
attr unit Bps
par Aloha.host[939] typename "\"Host\""
par Aloha.host[939] arrrate 0.2
par Aloha.host[939] packet_size 1B
attr unit B
par Aloha.host[939] x 155.42m
attr unit m
par Aloha.host[939] y 153.244m
attr unit m
par Aloha.host[939] txrate 1000Bps
attr unit Bps
par Aloha.host[940] typename "\"Host\""
par Aloha.host[940] arrrate 0.2
par Aloha.host[940] packet_size 1B
attr unit B
par Aloha.host[940] x 28.7214m
attr unit m
par Aloha.host[940] y 195.915m
attr unit m
par Aloha.host[940] txrate 1000Bps
attr unit Bps
par Aloha.host[941] typename "\"Host\""
par Aloha.host[941] arrrate 0.2
par Aloha.host[941] packet_size 1B
attr unit B
par Aloha.host[941] x 16.6405m
attr unit m
par Aloha.host[941] y 165.207m
attr unit m
par Aloha.host[941] txrate 1000Bps
attr unit Bps
par Aloha.host[942] typename "\"Host\""
par Aloha.host[942] arrrate 0.2
par Aloha.host[942] packet_size 1B
attr unit B
par Aloha.host[942] x 79.8437m
attr unit m
par Aloha.host[942] y 37.147m
attr unit m
par Aloha.host[942] txrate 1000Bps
attr unit Bps
par Aloha.host[943] typename "\"Host\""
par Aloha.host[943] arrrate 0.2
par Aloha.host[943] packet_size 1B
attr unit B
par Aloha.host[943] x 159.392m
attr unit m
par Aloha.host[943] y 152.501m
attr unit m
par Aloha.host[943] txrate 1000Bps
attr unit Bps
par Aloha.host[944] typename "\"Host\""
par Aloha.host[944] arrrate 0.2
par Aloha.host[944] packet_size 1B
attr unit B
par Aloha.host[944] x 38.3351m
attr unit m
par Aloha.host[944] y 37.8413m
attr unit m
par Aloha.host[944] txrate 1000Bps
attr unit Bps
par Aloha.host[945] typename "\"Host\""
par Aloha.host[945] arrrate 0.2
par Aloha.host[945] packet_size 1B
attr unit B
par Aloha.host[945] x 153.555m
attr unit m
par Aloha.host[945] y 68.0453m
attr unit m
par Aloha.host[945] txrate 1000Bps
attr unit Bps
par Aloha.host[946] typename "\"Host\""
par Aloha.host[946] arrrate 0.2
par Aloha.host[946] packet_size 1B
attr unit B
par Aloha.host[946] x 58.0596m
attr unit m
par Aloha.host[946] y 121.719m
attr unit m
par Aloha.host[946] txrate 1000Bps
attr unit Bps
par Aloha.host[947] typename "\"Host\""
par Aloha.host[947] arrrate 0.2
par Aloha.host[947] packet_size 1B
attr unit B
par Aloha.host[947] x 43.3783m
attr unit m
par Aloha.host[947] y 137.959m
attr unit m
par Aloha.host[947] txrate 1000Bps
attr unit Bps
par Aloha.host[948] typename "\"Host\""
par Aloha.host[948] arrrate 0.2
par Aloha.host[948] packet_size 1B
attr unit B
par Aloha.host[948] x 3.34312m
attr unit m
par Aloha.host[948] y 77.6195m
attr unit m
par Aloha.host[948] txrate 1000Bps
attr unit Bps
par Aloha.host[949] typename "\"Host\""
par Aloha.host[949] arrrate 0.2
par Aloha.host[949] packet_size 1B
attr unit B
par Aloha.host[949] x 79.7318m
attr unit m
par Aloha.host[949] y 53.8795m
attr unit m
par Aloha.host[949] txrate 1000Bps
attr unit Bps
par Aloha.host[950] typename "\"Host\""
par Aloha.host[950] arrrate 0.2
par Aloha.host[950] packet_size 1B
attr unit B
par Aloha.host[950] x 76.2163m
attr unit m
par Aloha.host[950] y 188.852m
attr unit m
par Aloha.host[950] txrate 1000Bps
attr unit Bps
par Aloha.host[951] typename "\"Host\""
par Aloha.host[951] arrrate 0.2
par Aloha.host[951] packet_size 1B
attr unit B
par Aloha.host[951] x 131.869m
attr unit m
par Aloha.host[951] y 60.8894m
attr unit m
par Aloha.host[951] txrate 1000Bps
attr unit Bps
par Aloha.host[952] typename "\"Host\""
par Aloha.host[952] arrrate 0.2
par Aloha.host[952] packet_size 1B
attr unit B
par Aloha.host[952] x 14.1837m
attr unit m
par Aloha.host[952] y 116.906m
attr unit m
par Aloha.host[952] txrate 1000Bps
attr unit Bps
par Aloha.host[953] typename "\"Host\""
par Aloha.host[953] arrrate 0.2
par Aloha.host[953] packet_size 1B
attr unit B
par Aloha.host[953] x 30.5208m
attr unit m
par Aloha.host[953] y 84.911m
attr unit m
par Aloha.host[953] txrate 1000Bps
attr unit Bps
par Aloha.host[954] typename "\"Host\""
par Aloha.host[954] arrrate 0.2
par Aloha.host[954] packet_size 1B
attr unit B
par Aloha.host[954] x 3.31518m
attr unit m
par Aloha.host[954] y 68.5115m
attr unit m
par Aloha.host[954] txrate 1000Bps
attr unit Bps
par Aloha.host[955] typename "\"Host\""
par Aloha.host[955] arrrate 0.2
par Aloha.host[955] packet_size 1B
attr unit B
par Aloha.host[955] x 22.7593m
attr unit m
par Aloha.host[955] y 83.4098m
attr unit m
par Aloha.host[955] txrate 1000Bps
attr unit Bps
par Aloha.host[956] typename "\"Host\""
par Aloha.host[956] arrrate 0.2
par Aloha.host[956] packet_size 1B
attr unit B
par Aloha.host[956] x 130.358m
attr unit m
par Aloha.host[956] y 152.168m
attr unit m
par Aloha.host[956] txrate 1000Bps
attr unit Bps
par Aloha.host[957] typename "\"Host\""
par Aloha.host[957] arrrate 0.2
par Aloha.host[957] packet_size 1B
attr unit B
par Aloha.host[957] x 80.5314m
attr unit m
par Aloha.host[957] y 172.51m
attr unit m
par Aloha.host[957] txrate 1000Bps
attr unit Bps
par Aloha.host[958] typename "\"Host\""
par Aloha.host[958] arrrate 0.2
par Aloha.host[958] packet_size 1B
attr unit B
par Aloha.host[958] x 64.2053m
attr unit m
par Aloha.host[958] y 103.15m
attr unit m
par Aloha.host[958] txrate 1000Bps
attr unit Bps
par Aloha.host[959] typename "\"Host\""
par Aloha.host[959] arrrate 0.2
par Aloha.host[959] packet_size 1B
attr unit B
par Aloha.host[959] x 111.582m
attr unit m
par Aloha.host[959] y 58.2696m
attr unit m
par Aloha.host[959] txrate 1000Bps
attr unit Bps
par Aloha.host[960] typename "\"Host\""
par Aloha.host[960] arrrate 0.2
par Aloha.host[960] packet_size 1B
attr unit B
par Aloha.host[960] x 198.692m
attr unit m
par Aloha.host[960] y 43.0179m
attr unit m
par Aloha.host[960] txrate 1000Bps
attr unit Bps
par Aloha.host[961] typename "\"Host\""
par Aloha.host[961] arrrate 0.2
par Aloha.host[961] packet_size 1B
attr unit B
par Aloha.host[961] x 166.897m
attr unit m
par Aloha.host[961] y 191.628m
attr unit m
par Aloha.host[961] txrate 1000Bps
attr unit Bps
par Aloha.host[962] typename "\"Host\""
par Aloha.host[962] arrrate 0.2
par Aloha.host[962] packet_size 1B
attr unit B
par Aloha.host[962] x 139.925m
attr unit m
par Aloha.host[962] y 199.56m
attr unit m
par Aloha.host[962] txrate 1000Bps
attr unit Bps
par Aloha.host[963] typename "\"Host\""
par Aloha.host[963] arrrate 0.2
par Aloha.host[963] packet_size 1B
attr unit B
par Aloha.host[963] x 183.652m
attr unit m
par Aloha.host[963] y 109.958m
attr unit m
par Aloha.host[963] txrate 1000Bps
attr unit Bps
par Aloha.host[964] typename "\"Host\""
par Aloha.host[964] arrrate 0.2
par Aloha.host[964] packet_size 1B
attr unit B
par Aloha.host[964] x 7.94574m
attr unit m
par Aloha.host[964] y 149.476m
attr unit m
par Aloha.host[964] txrate 1000Bps
attr unit Bps
par Aloha.host[965] typename "\"Host\""
par Aloha.host[965] arrrate 0.2
par Aloha.host[965] packet_size 1B
attr unit B
par Aloha.host[965] x 14.0667m
attr unit m
par Aloha.host[965] y 147.211m
attr unit m
par Aloha.host[965] txrate 1000Bps
attr unit Bps
par Aloha.host[966] typename "\"Host\""
par Aloha.host[966] arrrate 0.2
par Aloha.host[966] packet_size 1B
attr unit B
par Aloha.host[966] x 94.8013m
attr unit m
par Aloha.host[966] y 59.9812m
attr unit m
par Aloha.host[966] txrate 1000Bps
attr unit Bps
par Aloha.host[967] typename "\"Host\""
par Aloha.host[967] arrrate 0.2
par Aloha.host[967] packet_size 1B
attr unit B
par Aloha.host[967] x 69.8335m
attr unit m
par Aloha.host[967] y 171.747m
attr unit m
par Aloha.host[967] txrate 1000Bps
attr unit Bps
par Aloha.host[968] typename "\"Host\""
par Aloha.host[968] arrrate 0.2
par Aloha.host[968] packet_size 1B
attr unit B
par Aloha.host[968] x 187.45m
attr unit m
par Aloha.host[968] y 68.4391m
attr unit m
par Aloha.host[968] txrate 1000Bps
attr unit Bps
par Aloha.host[969] typename "\"Host\""
par Aloha.host[969] arrrate 0.2
par Aloha.host[969] packet_size 1B
attr unit B
par Aloha.host[969] x 97.913m
attr unit m
par Aloha.host[969] y 158.663m
attr unit m
par Aloha.host[969] txrate 1000Bps
attr unit Bps
par Aloha.host[970] typename "\"Host\""
par Aloha.host[970] arrrate 0.2
par Aloha.host[970] packet_size 1B
attr unit B
par Aloha.host[970] x 107.93m
attr unit m
par Aloha.host[970] y 94.7903m
attr unit m
par Aloha.host[970] txrate 1000Bps
attr unit Bps
par Aloha.host[971] typename "\"Host\""
par Aloha.host[971] arrrate 0.2
par Aloha.host[971] packet_size 1B
attr unit B
par Aloha.host[971] x 179.052m
attr unit m
par Aloha.host[971] y 51.3787m
attr unit m
par Aloha.host[971] txrate 1000Bps
attr unit Bps
par Aloha.host[972] typename "\"Host\""
par Aloha.host[972] arrrate 0.2
par Aloha.host[972] packet_size 1B
attr unit B
par Aloha.host[972] x 89.327m
attr unit m
par Aloha.host[972] y 19.1263m
attr unit m
par Aloha.host[972] txrate 1000Bps
attr unit Bps
par Aloha.host[973] typename "\"Host\""
par Aloha.host[973] arrrate 0.2
par Aloha.host[973] packet_size 1B
attr unit B
par Aloha.host[973] x 175.407m
attr unit m
par Aloha.host[973] y 21.1468m
attr unit m
par Aloha.host[973] txrate 1000Bps
attr unit Bps
par Aloha.host[974] typename "\"Host\""
par Aloha.host[974] arrrate 0.2
par Aloha.host[974] packet_size 1B
attr unit B
par Aloha.host[974] x 50.7163m
attr unit m
par Aloha.host[974] y 52.5851m
attr unit m
par Aloha.host[974] txrate 1000Bps
attr unit Bps
par Aloha.host[975] typename "\"Host\""
par Aloha.host[975] arrrate 0.2
par Aloha.host[975] packet_size 1B
attr unit B
par Aloha.host[975] x 54.7619m
attr unit m
par Aloha.host[975] y 79.2907m
attr unit m
par Aloha.host[975] txrate 1000Bps
attr unit Bps
par Aloha.host[976] typename "\"Host\""
par Aloha.host[976] arrrate 0.2
par Aloha.host[976] packet_size 1B
attr unit B
par Aloha.host[976] x 65.6723m
attr unit m
par Aloha.host[976] y 148.096m
attr unit m
par Aloha.host[976] txrate 1000Bps
attr unit Bps
par Aloha.host[977] typename "\"Host\""
par Aloha.host[977] arrrate 0.2
par Aloha.host[977] packet_size 1B
attr unit B
par Aloha.host[977] x 109.513m
attr unit m
par Aloha.host[977] y 63.5862m
attr unit m
par Aloha.host[977] txrate 1000Bps
attr unit Bps
par Aloha.host[978] typename "\"Host\""
par Aloha.host[978] arrrate 0.2
par Aloha.host[978] packet_size 1B
attr unit B
par Aloha.host[978] x 44.0257m
attr unit m
par Aloha.host[978] y 99.1108m
attr unit m
par Aloha.host[978] txrate 1000Bps
attr unit Bps
par Aloha.host[979] typename "\"Host\""
par Aloha.host[979] arrrate 0.2
par Aloha.host[979] packet_size 1B
attr unit B
par Aloha.host[979] x 134.286m
attr unit m
par Aloha.host[979] y 171.09m
attr unit m
par Aloha.host[979] txrate 1000Bps
attr unit Bps
par Aloha.host[980] typename "\"Host\""
par Aloha.host[980] arrrate 0.2
par Aloha.host[980] packet_size 1B
attr unit B
par Aloha.host[980] x 28.5587m
attr unit m
par Aloha.host[980] y 198.296m
attr unit m
par Aloha.host[980] txrate 1000Bps
attr unit Bps
par Aloha.host[981] typename "\"Host\""
par Aloha.host[981] arrrate 0.2
par Aloha.host[981] packet_size 1B
attr unit B
par Aloha.host[981] x 18.8201m
attr unit m
par Aloha.host[981] y 9.50359m
attr unit m
par Aloha.host[981] txrate 1000Bps
attr unit Bps
par Aloha.host[982] typename "\"Host\""
par Aloha.host[982] arrrate 0.2
par Aloha.host[982] packet_size 1B
attr unit B
par Aloha.host[982] x 174.038m
attr unit m
par Aloha.host[982] y 20.0077m
attr unit m
par Aloha.host[982] txrate 1000Bps
attr unit Bps
par Aloha.host[983] typename "\"Host\""
par Aloha.host[983] arrrate 0.2
par Aloha.host[983] packet_size 1B
attr unit B
par Aloha.host[983] x 47.3737m
attr unit m
par Aloha.host[983] y 45.1452m
attr unit m
par Aloha.host[983] txrate 1000Bps
attr unit Bps
par Aloha.host[984] typename "\"Host\""
par Aloha.host[984] arrrate 0.2
par Aloha.host[984] packet_size 1B
attr unit B
par Aloha.host[984] x 77.2008m
attr unit m
par Aloha.host[984] y 71.6679m
attr unit m
par Aloha.host[984] txrate 1000Bps
attr unit Bps
par Aloha.host[985] typename "\"Host\""
par Aloha.host[985] arrrate 0.2
par Aloha.host[985] packet_size 1B
attr unit B
par Aloha.host[985] x 114.308m
attr unit m
par Aloha.host[985] y 28.3919m
attr unit m
par Aloha.host[985] txrate 1000Bps
attr unit Bps
par Aloha.host[986] typename "\"Host\""
par Aloha.host[986] arrrate 0.2
par Aloha.host[986] packet_size 1B
attr unit B
par Aloha.host[986] x 105.16m
attr unit m
par Aloha.host[986] y 156.962m
attr unit m
par Aloha.host[986] txrate 1000Bps
attr unit Bps
par Aloha.host[987] typename "\"Host\""
par Aloha.host[987] arrrate 0.2
par Aloha.host[987] packet_size 1B
attr unit B
par Aloha.host[987] x 15.2048m
attr unit m
par Aloha.host[987] y 74.4931m
attr unit m
par Aloha.host[987] txrate 1000Bps
attr unit Bps
par Aloha.host[988] typename "\"Host\""
par Aloha.host[988] arrrate 0.2
par Aloha.host[988] packet_size 1B
attr unit B
par Aloha.host[988] x 174.825m
attr unit m
par Aloha.host[988] y 12.3683m
attr unit m
par Aloha.host[988] txrate 1000Bps
attr unit Bps
par Aloha.host[989] typename "\"Host\""
par Aloha.host[989] arrrate 0.2
par Aloha.host[989] packet_size 1B
attr unit B
par Aloha.host[989] x 190.227m
attr unit m
par Aloha.host[989] y 144.806m
attr unit m
par Aloha.host[989] txrate 1000Bps
attr unit Bps
par Aloha.host[990] typename "\"Host\""
par Aloha.host[990] arrrate 0.2
par Aloha.host[990] packet_size 1B
attr unit B
par Aloha.host[990] x 162.501m
attr unit m
par Aloha.host[990] y 69.9459m
attr unit m
par Aloha.host[990] txrate 1000Bps
attr unit Bps
par Aloha.host[991] typename "\"Host\""
par Aloha.host[991] arrrate 0.2
par Aloha.host[991] packet_size 1B
attr unit B
par Aloha.host[991] x 56.7604m
attr unit m
par Aloha.host[991] y 97.7601m
attr unit m
par Aloha.host[991] txrate 1000Bps
attr unit Bps
par Aloha.host[992] typename "\"Host\""
par Aloha.host[992] arrrate 0.2
par Aloha.host[992] packet_size 1B
attr unit B
par Aloha.host[992] x 105.569m
attr unit m
par Aloha.host[992] y 141.406m
attr unit m
par Aloha.host[992] txrate 1000Bps
attr unit Bps
par Aloha.host[993] typename "\"Host\""
par Aloha.host[993] arrrate 0.2
par Aloha.host[993] packet_size 1B
attr unit B
par Aloha.host[993] x 67.8833m
attr unit m
par Aloha.host[993] y 108.569m
attr unit m
par Aloha.host[993] txrate 1000Bps
attr unit Bps
par Aloha.host[994] typename "\"Host\""
par Aloha.host[994] arrrate 0.2
par Aloha.host[994] packet_size 1B
attr unit B
par Aloha.host[994] x 110.933m
attr unit m
par Aloha.host[994] y 49.9581m
attr unit m
par Aloha.host[994] txrate 1000Bps
attr unit Bps
par Aloha.host[995] typename "\"Host\""
par Aloha.host[995] arrrate 0.2
par Aloha.host[995] packet_size 1B
attr unit B
par Aloha.host[995] x 194.881m
attr unit m
par Aloha.host[995] y 150.564m
attr unit m
par Aloha.host[995] txrate 1000Bps
attr unit Bps
par Aloha.host[996] typename "\"Host\""
par Aloha.host[996] arrrate 0.2
par Aloha.host[996] packet_size 1B
attr unit B
par Aloha.host[996] x 62.3406m
attr unit m
par Aloha.host[996] y 85.4425m
attr unit m
par Aloha.host[996] txrate 1000Bps
attr unit Bps
par Aloha.host[997] typename "\"Host\""
par Aloha.host[997] arrrate 0.2
par Aloha.host[997] packet_size 1B
attr unit B
par Aloha.host[997] x 133.759m
attr unit m
par Aloha.host[997] y 188.216m
attr unit m
par Aloha.host[997] txrate 1000Bps
attr unit Bps
par Aloha.host[998] typename "\"Host\""
par Aloha.host[998] arrrate 0.2
par Aloha.host[998] packet_size 1B
attr unit B
par Aloha.host[998] x 65.1934m
attr unit m
par Aloha.host[998] y 193.503m
attr unit m
par Aloha.host[998] txrate 1000Bps
attr unit Bps
par Aloha.host[999] typename "\"Host\""
par Aloha.host[999] arrrate 0.2
par Aloha.host[999] packet_size 1B
attr unit B
par Aloha.host[999] x 154.895m
attr unit m
par Aloha.host[999] y 6.43912m
attr unit m
par Aloha.host[999] txrate 1000Bps
attr unit Bps
par Aloha.server typename "\"Server\""
par Aloha.server x 65.162m
attr unit m
par Aloha.server y 95.716m
attr unit m
scalar Aloha.server prob_succ 0.6705147918845
scalar Aloha.server uti 13.408814
par Aloha typename "\"Aloha\""
par Aloha numHosts 1000

