version 3
run General-4-20220605-16:53:56-732256
attr configname General
attr datetime 20220605-16:53:56
attr datetimef 20220605-165356
attr experiment General
attr inifile aloha.ini
attr iterationvars $0=0.5
attr iterationvarsd 0.5
attr iterationvarsf 0.5-
attr measurement $0=0.5
attr network Aloha
attr processid 732256
attr repetition 0
attr replication #0
attr resultdir results
attr runnumber 4
attr seedset 4
config network Aloha
config cmdenv-performance-display false
config sim-time-limit 100000s
config **.x "uniform(0m, 200m)"
config **.y "uniform(0m, 200m)"
config *.numHosts 1000
config **.packet_size 1B
config **.txrate 1000Bps
config **.arrrate 0.5

par Aloha.host[0] typename "\"Host\""
par Aloha.host[0] arrrate 0.5
par Aloha.host[0] packet_size 1B
attr unit B
par Aloha.host[0] x 193.406m
attr unit m
par Aloha.host[0] y 180.124m
attr unit m
par Aloha.host[0] txrate 1000Bps
attr unit Bps
par Aloha.host[1] typename "\"Host\""
par Aloha.host[1] arrrate 0.5
par Aloha.host[1] packet_size 1B
attr unit B
par Aloha.host[1] x 109.446m
attr unit m
par Aloha.host[1] y 34.5391m
attr unit m
par Aloha.host[1] txrate 1000Bps
attr unit Bps
par Aloha.host[2] typename "\"Host\""
par Aloha.host[2] arrrate 0.5
par Aloha.host[2] packet_size 1B
attr unit B
par Aloha.host[2] x 194.537m
attr unit m
par Aloha.host[2] y 171.124m
attr unit m
par Aloha.host[2] txrate 1000Bps
attr unit Bps
par Aloha.host[3] typename "\"Host\""
par Aloha.host[3] arrrate 0.5
par Aloha.host[3] packet_size 1B
attr unit B
par Aloha.host[3] x 142.963m
attr unit m
par Aloha.host[3] y 121.807m
attr unit m
par Aloha.host[3] txrate 1000Bps
attr unit Bps
par Aloha.host[4] typename "\"Host\""
par Aloha.host[4] arrrate 0.5
par Aloha.host[4] packet_size 1B
attr unit B
par Aloha.host[4] x 139.546m
attr unit m
par Aloha.host[4] y 119.511m
attr unit m
par Aloha.host[4] txrate 1000Bps
attr unit Bps
par Aloha.host[5] typename "\"Host\""
par Aloha.host[5] arrrate 0.5
par Aloha.host[5] packet_size 1B
attr unit B
par Aloha.host[5] x 43.2179m
attr unit m
par Aloha.host[5] y 28.2928m
attr unit m
par Aloha.host[5] txrate 1000Bps
attr unit Bps
par Aloha.host[6] typename "\"Host\""
par Aloha.host[6] arrrate 0.5
par Aloha.host[6] packet_size 1B
attr unit B
par Aloha.host[6] x 195.255m
attr unit m
par Aloha.host[6] y 44.9012m
attr unit m
par Aloha.host[6] txrate 1000Bps
attr unit Bps
par Aloha.host[7] typename "\"Host\""
par Aloha.host[7] arrrate 0.5
par Aloha.host[7] packet_size 1B
attr unit B
par Aloha.host[7] x 1.24605m
attr unit m
par Aloha.host[7] y 139.684m
attr unit m
par Aloha.host[7] txrate 1000Bps
attr unit Bps
par Aloha.host[8] typename "\"Host\""
par Aloha.host[8] arrrate 0.5
par Aloha.host[8] packet_size 1B
attr unit B
par Aloha.host[8] x 50.5965m
attr unit m
par Aloha.host[8] y 180.636m
attr unit m
par Aloha.host[8] txrate 1000Bps
attr unit Bps
par Aloha.host[9] typename "\"Host\""
par Aloha.host[9] arrrate 0.5
par Aloha.host[9] packet_size 1B
attr unit B
par Aloha.host[9] x 86.9583m
attr unit m
par Aloha.host[9] y 126.593m
attr unit m
par Aloha.host[9] txrate 1000Bps
attr unit Bps
par Aloha.host[10] typename "\"Host\""
par Aloha.host[10] arrrate 0.5
par Aloha.host[10] packet_size 1B
attr unit B
par Aloha.host[10] x 155.877m
attr unit m
par Aloha.host[10] y 1.03183m
attr unit m
par Aloha.host[10] txrate 1000Bps
attr unit Bps
par Aloha.host[11] typename "\"Host\""
par Aloha.host[11] arrrate 0.5
par Aloha.host[11] packet_size 1B
attr unit B
par Aloha.host[11] x 39.537m
attr unit m
par Aloha.host[11] y 114.471m
attr unit m
par Aloha.host[11] txrate 1000Bps
attr unit Bps
par Aloha.host[12] typename "\"Host\""
par Aloha.host[12] arrrate 0.5
par Aloha.host[12] packet_size 1B
attr unit B
par Aloha.host[12] x 172.599m
attr unit m
par Aloha.host[12] y 72.2993m
attr unit m
par Aloha.host[12] txrate 1000Bps
attr unit Bps
par Aloha.host[13] typename "\"Host\""
par Aloha.host[13] arrrate 0.5
par Aloha.host[13] packet_size 1B
attr unit B
par Aloha.host[13] x 196.68m
attr unit m
par Aloha.host[13] y 120.826m
attr unit m
par Aloha.host[13] txrate 1000Bps
attr unit Bps
par Aloha.host[14] typename "\"Host\""
par Aloha.host[14] arrrate 0.5
par Aloha.host[14] packet_size 1B
attr unit B
par Aloha.host[14] x 32.7684m
attr unit m
par Aloha.host[14] y 78.3532m
attr unit m
par Aloha.host[14] txrate 1000Bps
attr unit Bps
par Aloha.host[15] typename "\"Host\""
par Aloha.host[15] arrrate 0.5
par Aloha.host[15] packet_size 1B
attr unit B
par Aloha.host[15] x 119.467m
attr unit m
par Aloha.host[15] y 162.39m
attr unit m
par Aloha.host[15] txrate 1000Bps
attr unit Bps
par Aloha.host[16] typename "\"Host\""
par Aloha.host[16] arrrate 0.5
par Aloha.host[16] packet_size 1B
attr unit B
par Aloha.host[16] x 1.79722m
attr unit m
par Aloha.host[16] y 122.505m
attr unit m
par Aloha.host[16] txrate 1000Bps
attr unit Bps
par Aloha.host[17] typename "\"Host\""
par Aloha.host[17] arrrate 0.5
par Aloha.host[17] packet_size 1B
attr unit B
par Aloha.host[17] x 77.3143m
attr unit m
par Aloha.host[17] y 53.2948m
attr unit m
par Aloha.host[17] txrate 1000Bps
attr unit Bps
par Aloha.host[18] typename "\"Host\""
par Aloha.host[18] arrrate 0.5
par Aloha.host[18] packet_size 1B
attr unit B
par Aloha.host[18] x 8.83201m
attr unit m
par Aloha.host[18] y 128.783m
attr unit m
par Aloha.host[18] txrate 1000Bps
attr unit Bps
par Aloha.host[19] typename "\"Host\""
par Aloha.host[19] arrrate 0.5
par Aloha.host[19] packet_size 1B
attr unit B
par Aloha.host[19] x 191.331m
attr unit m
par Aloha.host[19] y 162.212m
attr unit m
par Aloha.host[19] txrate 1000Bps
attr unit Bps
par Aloha.host[20] typename "\"Host\""
par Aloha.host[20] arrrate 0.5
par Aloha.host[20] packet_size 1B
attr unit B
par Aloha.host[20] x 87.2293m
attr unit m
par Aloha.host[20] y 3.80495m
attr unit m
par Aloha.host[20] txrate 1000Bps
attr unit Bps
par Aloha.host[21] typename "\"Host\""
par Aloha.host[21] arrrate 0.5
par Aloha.host[21] packet_size 1B
attr unit B
par Aloha.host[21] x 189.795m
attr unit m
par Aloha.host[21] y 7.95607m
attr unit m
par Aloha.host[21] txrate 1000Bps
attr unit Bps
par Aloha.host[22] typename "\"Host\""
par Aloha.host[22] arrrate 0.5
par Aloha.host[22] packet_size 1B
attr unit B
par Aloha.host[22] x 157.261m
attr unit m
par Aloha.host[22] y 189.001m
attr unit m
par Aloha.host[22] txrate 1000Bps
attr unit Bps
par Aloha.host[23] typename "\"Host\""
par Aloha.host[23] arrrate 0.5
par Aloha.host[23] packet_size 1B
attr unit B
par Aloha.host[23] x 173.258m
attr unit m
par Aloha.host[23] y 89.2698m
attr unit m
par Aloha.host[23] txrate 1000Bps
attr unit Bps
par Aloha.host[24] typename "\"Host\""
par Aloha.host[24] arrrate 0.5
par Aloha.host[24] packet_size 1B
attr unit B
par Aloha.host[24] x 34.6331m
attr unit m
par Aloha.host[24] y 88.2697m
attr unit m
par Aloha.host[24] txrate 1000Bps
attr unit Bps
par Aloha.host[25] typename "\"Host\""
par Aloha.host[25] arrrate 0.5
par Aloha.host[25] packet_size 1B
attr unit B
par Aloha.host[25] x 14.9897m
attr unit m
par Aloha.host[25] y 13.1419m
attr unit m
par Aloha.host[25] txrate 1000Bps
attr unit Bps
par Aloha.host[26] typename "\"Host\""
par Aloha.host[26] arrrate 0.5
par Aloha.host[26] packet_size 1B
attr unit B
par Aloha.host[26] x 120.149m
attr unit m
par Aloha.host[26] y 35.1722m
attr unit m
par Aloha.host[26] txrate 1000Bps
attr unit Bps
par Aloha.host[27] typename "\"Host\""
par Aloha.host[27] arrrate 0.5
par Aloha.host[27] packet_size 1B
attr unit B
par Aloha.host[27] x 33.5944m
attr unit m
par Aloha.host[27] y 173.177m
attr unit m
par Aloha.host[27] txrate 1000Bps
attr unit Bps
par Aloha.host[28] typename "\"Host\""
par Aloha.host[28] arrrate 0.5
par Aloha.host[28] packet_size 1B
attr unit B
par Aloha.host[28] x 146.676m
attr unit m
par Aloha.host[28] y 168.706m
attr unit m
par Aloha.host[28] txrate 1000Bps
attr unit Bps
par Aloha.host[29] typename "\"Host\""
par Aloha.host[29] arrrate 0.5
par Aloha.host[29] packet_size 1B
attr unit B
par Aloha.host[29] x 81.6888m
attr unit m
par Aloha.host[29] y 185.031m
attr unit m
par Aloha.host[29] txrate 1000Bps
attr unit Bps
par Aloha.host[30] typename "\"Host\""
par Aloha.host[30] arrrate 0.5
par Aloha.host[30] packet_size 1B
attr unit B
par Aloha.host[30] x 105.582m
attr unit m
par Aloha.host[30] y 174.061m
attr unit m
par Aloha.host[30] txrate 1000Bps
attr unit Bps
par Aloha.host[31] typename "\"Host\""
par Aloha.host[31] arrrate 0.5
par Aloha.host[31] packet_size 1B
attr unit B
par Aloha.host[31] x 187.514m
attr unit m
par Aloha.host[31] y 167.051m
attr unit m
par Aloha.host[31] txrate 1000Bps
attr unit Bps
par Aloha.host[32] typename "\"Host\""
par Aloha.host[32] arrrate 0.5
par Aloha.host[32] packet_size 1B
attr unit B
par Aloha.host[32] x 104.339m
attr unit m
par Aloha.host[32] y 52.1944m
attr unit m
par Aloha.host[32] txrate 1000Bps
attr unit Bps
par Aloha.host[33] typename "\"Host\""
par Aloha.host[33] arrrate 0.5
par Aloha.host[33] packet_size 1B
attr unit B
par Aloha.host[33] x 21.6387m
attr unit m
par Aloha.host[33] y 7.15164m
attr unit m
par Aloha.host[33] txrate 1000Bps
attr unit Bps
par Aloha.host[34] typename "\"Host\""
par Aloha.host[34] arrrate 0.5
par Aloha.host[34] packet_size 1B
attr unit B
par Aloha.host[34] x 31.6447m
attr unit m
par Aloha.host[34] y 45.7525m
attr unit m
par Aloha.host[34] txrate 1000Bps
attr unit Bps
par Aloha.host[35] typename "\"Host\""
par Aloha.host[35] arrrate 0.5
par Aloha.host[35] packet_size 1B
attr unit B
par Aloha.host[35] x 109.041m
attr unit m
par Aloha.host[35] y 42.2361m
attr unit m
par Aloha.host[35] txrate 1000Bps
attr unit Bps
par Aloha.host[36] typename "\"Host\""
par Aloha.host[36] arrrate 0.5
par Aloha.host[36] packet_size 1B
attr unit B
par Aloha.host[36] x 104.881m
attr unit m
par Aloha.host[36] y 36.1441m
attr unit m
par Aloha.host[36] txrate 1000Bps
attr unit Bps
par Aloha.host[37] typename "\"Host\""
par Aloha.host[37] arrrate 0.5
par Aloha.host[37] packet_size 1B
attr unit B
par Aloha.host[37] x 127.522m
attr unit m
par Aloha.host[37] y 63.2232m
attr unit m
par Aloha.host[37] txrate 1000Bps
attr unit Bps
par Aloha.host[38] typename "\"Host\""
par Aloha.host[38] arrrate 0.5
par Aloha.host[38] packet_size 1B
attr unit B
par Aloha.host[38] x 80.2991m
attr unit m
par Aloha.host[38] y 48.2077m
attr unit m
par Aloha.host[38] txrate 1000Bps
attr unit Bps
par Aloha.host[39] typename "\"Host\""
par Aloha.host[39] arrrate 0.5
par Aloha.host[39] packet_size 1B
attr unit B
par Aloha.host[39] x 129.961m
attr unit m
par Aloha.host[39] y 75.0737m
attr unit m
par Aloha.host[39] txrate 1000Bps
attr unit Bps
par Aloha.host[40] typename "\"Host\""
par Aloha.host[40] arrrate 0.5
par Aloha.host[40] packet_size 1B
attr unit B
par Aloha.host[40] x 79.38m
attr unit m
par Aloha.host[40] y 126.533m
attr unit m
par Aloha.host[40] txrate 1000Bps
attr unit Bps
par Aloha.host[41] typename "\"Host\""
par Aloha.host[41] arrrate 0.5
par Aloha.host[41] packet_size 1B
attr unit B
par Aloha.host[41] x 124.783m
attr unit m
par Aloha.host[41] y 44.6065m
attr unit m
par Aloha.host[41] txrate 1000Bps
attr unit Bps
par Aloha.host[42] typename "\"Host\""
par Aloha.host[42] arrrate 0.5
par Aloha.host[42] packet_size 1B
attr unit B
par Aloha.host[42] x 153.481m
attr unit m
par Aloha.host[42] y 27.7502m
attr unit m
par Aloha.host[42] txrate 1000Bps
attr unit Bps
par Aloha.host[43] typename "\"Host\""
par Aloha.host[43] arrrate 0.5
par Aloha.host[43] packet_size 1B
attr unit B
par Aloha.host[43] x 35.7948m
attr unit m
par Aloha.host[43] y 115.399m
attr unit m
par Aloha.host[43] txrate 1000Bps
attr unit Bps
par Aloha.host[44] typename "\"Host\""
par Aloha.host[44] arrrate 0.5
par Aloha.host[44] packet_size 1B
attr unit B
par Aloha.host[44] x 75.1152m
attr unit m
par Aloha.host[44] y 70.3347m
attr unit m
par Aloha.host[44] txrate 1000Bps
attr unit Bps
par Aloha.host[45] typename "\"Host\""
par Aloha.host[45] arrrate 0.5
par Aloha.host[45] packet_size 1B
attr unit B
par Aloha.host[45] x 100.507m
attr unit m
par Aloha.host[45] y 93.5501m
attr unit m
par Aloha.host[45] txrate 1000Bps
attr unit Bps
par Aloha.host[46] typename "\"Host\""
par Aloha.host[46] arrrate 0.5
par Aloha.host[46] packet_size 1B
attr unit B
par Aloha.host[46] x 137.333m
attr unit m
par Aloha.host[46] y 71.7533m
attr unit m
par Aloha.host[46] txrate 1000Bps
attr unit Bps
par Aloha.host[47] typename "\"Host\""
par Aloha.host[47] arrrate 0.5
par Aloha.host[47] packet_size 1B
attr unit B
par Aloha.host[47] x 50.7359m
attr unit m
par Aloha.host[47] y 16.6338m
attr unit m
par Aloha.host[47] txrate 1000Bps
attr unit Bps
par Aloha.host[48] typename "\"Host\""
par Aloha.host[48] arrrate 0.5
par Aloha.host[48] packet_size 1B
attr unit B
par Aloha.host[48] x 110.948m
attr unit m
par Aloha.host[48] y 50.5819m
attr unit m
par Aloha.host[48] txrate 1000Bps
attr unit Bps
par Aloha.host[49] typename "\"Host\""
par Aloha.host[49] arrrate 0.5
par Aloha.host[49] packet_size 1B
attr unit B
par Aloha.host[49] x 124.986m
attr unit m
par Aloha.host[49] y 9.4811m
attr unit m
par Aloha.host[49] txrate 1000Bps
attr unit Bps
par Aloha.host[50] typename "\"Host\""
par Aloha.host[50] arrrate 0.5
par Aloha.host[50] packet_size 1B
attr unit B
par Aloha.host[50] x 179.1m
attr unit m
par Aloha.host[50] y 185.881m
attr unit m
par Aloha.host[50] txrate 1000Bps
attr unit Bps
par Aloha.host[51] typename "\"Host\""
par Aloha.host[51] arrrate 0.5
par Aloha.host[51] packet_size 1B
attr unit B
par Aloha.host[51] x 72.5707m
attr unit m
par Aloha.host[51] y 47.2283m
attr unit m
par Aloha.host[51] txrate 1000Bps
attr unit Bps
par Aloha.host[52] typename "\"Host\""
par Aloha.host[52] arrrate 0.5
par Aloha.host[52] packet_size 1B
attr unit B
par Aloha.host[52] x 127.511m
attr unit m
par Aloha.host[52] y 162.181m
attr unit m
par Aloha.host[52] txrate 1000Bps
attr unit Bps
par Aloha.host[53] typename "\"Host\""
par Aloha.host[53] arrrate 0.5
par Aloha.host[53] packet_size 1B
attr unit B
par Aloha.host[53] x 38.2893m
attr unit m
par Aloha.host[53] y 25.2363m
attr unit m
par Aloha.host[53] txrate 1000Bps
attr unit Bps
par Aloha.host[54] typename "\"Host\""
par Aloha.host[54] arrrate 0.5
par Aloha.host[54] packet_size 1B
attr unit B
par Aloha.host[54] x 99.5588m
attr unit m
par Aloha.host[54] y 15.1413m
attr unit m
par Aloha.host[54] txrate 1000Bps
attr unit Bps
par Aloha.host[55] typename "\"Host\""
par Aloha.host[55] arrrate 0.5
par Aloha.host[55] packet_size 1B
attr unit B
par Aloha.host[55] x 36.4891m
attr unit m
par Aloha.host[55] y 137.118m
attr unit m
par Aloha.host[55] txrate 1000Bps
attr unit Bps
par Aloha.host[56] typename "\"Host\""
par Aloha.host[56] arrrate 0.5
par Aloha.host[56] packet_size 1B
attr unit B
par Aloha.host[56] x 183.677m
attr unit m
par Aloha.host[56] y 189.415m
attr unit m
par Aloha.host[56] txrate 1000Bps
attr unit Bps
par Aloha.host[57] typename "\"Host\""
par Aloha.host[57] arrrate 0.5
par Aloha.host[57] packet_size 1B
attr unit B
par Aloha.host[57] x 86.3644m
attr unit m
par Aloha.host[57] y 63.1347m
attr unit m
par Aloha.host[57] txrate 1000Bps
attr unit Bps
par Aloha.host[58] typename "\"Host\""
par Aloha.host[58] arrrate 0.5
par Aloha.host[58] packet_size 1B
attr unit B
par Aloha.host[58] x 166.038m
attr unit m
par Aloha.host[58] y 175.254m
attr unit m
par Aloha.host[58] txrate 1000Bps
attr unit Bps
par Aloha.host[59] typename "\"Host\""
par Aloha.host[59] arrrate 0.5
par Aloha.host[59] packet_size 1B
attr unit B
par Aloha.host[59] x 83.3553m
attr unit m
par Aloha.host[59] y 139.633m
attr unit m
par Aloha.host[59] txrate 1000Bps
attr unit Bps
par Aloha.host[60] typename "\"Host\""
par Aloha.host[60] arrrate 0.5
par Aloha.host[60] packet_size 1B
attr unit B
par Aloha.host[60] x 180.934m
attr unit m
par Aloha.host[60] y 71.2746m
attr unit m
par Aloha.host[60] txrate 1000Bps
attr unit Bps
par Aloha.host[61] typename "\"Host\""
par Aloha.host[61] arrrate 0.5
par Aloha.host[61] packet_size 1B
attr unit B
par Aloha.host[61] x 80.965m
attr unit m
par Aloha.host[61] y 180.915m
attr unit m
par Aloha.host[61] txrate 1000Bps
attr unit Bps
par Aloha.host[62] typename "\"Host\""
par Aloha.host[62] arrrate 0.5
par Aloha.host[62] packet_size 1B
attr unit B
par Aloha.host[62] x 66.2349m
attr unit m
par Aloha.host[62] y 75.2839m
attr unit m
par Aloha.host[62] txrate 1000Bps
attr unit Bps
par Aloha.host[63] typename "\"Host\""
par Aloha.host[63] arrrate 0.5
par Aloha.host[63] packet_size 1B
attr unit B
par Aloha.host[63] x 114.428m
attr unit m
par Aloha.host[63] y 169.344m
attr unit m
par Aloha.host[63] txrate 1000Bps
attr unit Bps
par Aloha.host[64] typename "\"Host\""
par Aloha.host[64] arrrate 0.5
par Aloha.host[64] packet_size 1B
attr unit B
par Aloha.host[64] x 169.089m
attr unit m
par Aloha.host[64] y 146.688m
attr unit m
par Aloha.host[64] txrate 1000Bps
attr unit Bps
par Aloha.host[65] typename "\"Host\""
par Aloha.host[65] arrrate 0.5
par Aloha.host[65] packet_size 1B
attr unit B
par Aloha.host[65] x 172.203m
attr unit m
par Aloha.host[65] y 139.796m
attr unit m
par Aloha.host[65] txrate 1000Bps
attr unit Bps
par Aloha.host[66] typename "\"Host\""
par Aloha.host[66] arrrate 0.5
par Aloha.host[66] packet_size 1B
attr unit B
par Aloha.host[66] x 119.138m
attr unit m
par Aloha.host[66] y 133.902m
attr unit m
par Aloha.host[66] txrate 1000Bps
attr unit Bps
par Aloha.host[67] typename "\"Host\""
par Aloha.host[67] arrrate 0.5
par Aloha.host[67] packet_size 1B
attr unit B
par Aloha.host[67] x 16.9323m
attr unit m
par Aloha.host[67] y 15.9958m
attr unit m
par Aloha.host[67] txrate 1000Bps
attr unit Bps
par Aloha.host[68] typename "\"Host\""
par Aloha.host[68] arrrate 0.5
par Aloha.host[68] packet_size 1B
attr unit B
par Aloha.host[68] x 119.453m
attr unit m
par Aloha.host[68] y 8.92957m
attr unit m
par Aloha.host[68] txrate 1000Bps
attr unit Bps
par Aloha.host[69] typename "\"Host\""
par Aloha.host[69] arrrate 0.5
par Aloha.host[69] packet_size 1B
attr unit B
par Aloha.host[69] x 49.0907m
attr unit m
par Aloha.host[69] y 19.0396m
attr unit m
par Aloha.host[69] txrate 1000Bps
attr unit Bps
par Aloha.host[70] typename "\"Host\""
par Aloha.host[70] arrrate 0.5
par Aloha.host[70] packet_size 1B
attr unit B
par Aloha.host[70] x 146.519m
attr unit m
par Aloha.host[70] y 43.4861m
attr unit m
par Aloha.host[70] txrate 1000Bps
attr unit Bps
par Aloha.host[71] typename "\"Host\""
par Aloha.host[71] arrrate 0.5
par Aloha.host[71] packet_size 1B
attr unit B
par Aloha.host[71] x 178.93m
attr unit m
par Aloha.host[71] y 161.403m
attr unit m
par Aloha.host[71] txrate 1000Bps
attr unit Bps
par Aloha.host[72] typename "\"Host\""
par Aloha.host[72] arrrate 0.5
par Aloha.host[72] packet_size 1B
attr unit B
par Aloha.host[72] x 102.947m
attr unit m
par Aloha.host[72] y 20.0761m
attr unit m
par Aloha.host[72] txrate 1000Bps
attr unit Bps
par Aloha.host[73] typename "\"Host\""
par Aloha.host[73] arrrate 0.5
par Aloha.host[73] packet_size 1B
attr unit B
par Aloha.host[73] x 120.713m
attr unit m
par Aloha.host[73] y 12.8503m
attr unit m
par Aloha.host[73] txrate 1000Bps
attr unit Bps
par Aloha.host[74] typename "\"Host\""
par Aloha.host[74] arrrate 0.5
par Aloha.host[74] packet_size 1B
attr unit B
par Aloha.host[74] x 13.0136m
attr unit m
par Aloha.host[74] y 188.79m
attr unit m
par Aloha.host[74] txrate 1000Bps
attr unit Bps
par Aloha.host[75] typename "\"Host\""
par Aloha.host[75] arrrate 0.5
par Aloha.host[75] packet_size 1B
attr unit B
par Aloha.host[75] x 108.015m
attr unit m
par Aloha.host[75] y 32.5743m
attr unit m
par Aloha.host[75] txrate 1000Bps
attr unit Bps
par Aloha.host[76] typename "\"Host\""
par Aloha.host[76] arrrate 0.5
par Aloha.host[76] packet_size 1B
attr unit B
par Aloha.host[76] x 25.8374m
attr unit m
par Aloha.host[76] y 118.375m
attr unit m
par Aloha.host[76] txrate 1000Bps
attr unit Bps
par Aloha.host[77] typename "\"Host\""
par Aloha.host[77] arrrate 0.5
par Aloha.host[77] packet_size 1B
attr unit B
par Aloha.host[77] x 122.913m
attr unit m
par Aloha.host[77] y 190.071m
attr unit m
par Aloha.host[77] txrate 1000Bps
attr unit Bps
par Aloha.host[78] typename "\"Host\""
par Aloha.host[78] arrrate 0.5
par Aloha.host[78] packet_size 1B
attr unit B
par Aloha.host[78] x 72.7301m
attr unit m
par Aloha.host[78] y 73.3539m
attr unit m
par Aloha.host[78] txrate 1000Bps
attr unit Bps
par Aloha.host[79] typename "\"Host\""
par Aloha.host[79] arrrate 0.5
par Aloha.host[79] packet_size 1B
attr unit B
par Aloha.host[79] x 153.552m
attr unit m
par Aloha.host[79] y 4.32374m
attr unit m
par Aloha.host[79] txrate 1000Bps
attr unit Bps
par Aloha.host[80] typename "\"Host\""
par Aloha.host[80] arrrate 0.5
par Aloha.host[80] packet_size 1B
attr unit B
par Aloha.host[80] x 9.70683m
attr unit m
par Aloha.host[80] y 104.135m
attr unit m
par Aloha.host[80] txrate 1000Bps
attr unit Bps
par Aloha.host[81] typename "\"Host\""
par Aloha.host[81] arrrate 0.5
par Aloha.host[81] packet_size 1B
attr unit B
par Aloha.host[81] x 21.9636m
attr unit m
par Aloha.host[81] y 61.4025m
attr unit m
par Aloha.host[81] txrate 1000Bps
attr unit Bps
par Aloha.host[82] typename "\"Host\""
par Aloha.host[82] arrrate 0.5
par Aloha.host[82] packet_size 1B
attr unit B
par Aloha.host[82] x 136.805m
attr unit m
par Aloha.host[82] y 166.63m
attr unit m
par Aloha.host[82] txrate 1000Bps
attr unit Bps
par Aloha.host[83] typename "\"Host\""
par Aloha.host[83] arrrate 0.5
par Aloha.host[83] packet_size 1B
attr unit B
par Aloha.host[83] x 102.931m
attr unit m
par Aloha.host[83] y 185.874m
attr unit m
par Aloha.host[83] txrate 1000Bps
attr unit Bps
par Aloha.host[84] typename "\"Host\""
par Aloha.host[84] arrrate 0.5
par Aloha.host[84] packet_size 1B
attr unit B
par Aloha.host[84] x 114.328m
attr unit m
par Aloha.host[84] y 25.7871m
attr unit m
par Aloha.host[84] txrate 1000Bps
attr unit Bps
par Aloha.host[85] typename "\"Host\""
par Aloha.host[85] arrrate 0.5
par Aloha.host[85] packet_size 1B
attr unit B
par Aloha.host[85] x 168.741m
attr unit m
par Aloha.host[85] y 166.227m
attr unit m
par Aloha.host[85] txrate 1000Bps
attr unit Bps
par Aloha.host[86] typename "\"Host\""
par Aloha.host[86] arrrate 0.5
par Aloha.host[86] packet_size 1B
attr unit B
par Aloha.host[86] x 97.5475m
attr unit m
par Aloha.host[86] y 157.351m
attr unit m
par Aloha.host[86] txrate 1000Bps
attr unit Bps
par Aloha.host[87] typename "\"Host\""
par Aloha.host[87] arrrate 0.5
par Aloha.host[87] packet_size 1B
attr unit B
par Aloha.host[87] x 162.029m
attr unit m
par Aloha.host[87] y 137.929m
attr unit m
par Aloha.host[87] txrate 1000Bps
attr unit Bps
par Aloha.host[88] typename "\"Host\""
par Aloha.host[88] arrrate 0.5
par Aloha.host[88] packet_size 1B
attr unit B
par Aloha.host[88] x 102.049m
attr unit m
par Aloha.host[88] y 130.088m
attr unit m
par Aloha.host[88] txrate 1000Bps
attr unit Bps
par Aloha.host[89] typename "\"Host\""
par Aloha.host[89] arrrate 0.5
par Aloha.host[89] packet_size 1B
attr unit B
par Aloha.host[89] x 185.344m
attr unit m
par Aloha.host[89] y 187.458m
attr unit m
par Aloha.host[89] txrate 1000Bps
attr unit Bps
par Aloha.host[90] typename "\"Host\""
par Aloha.host[90] arrrate 0.5
par Aloha.host[90] packet_size 1B
attr unit B
par Aloha.host[90] x 133.386m
attr unit m
par Aloha.host[90] y 47.2303m
attr unit m
par Aloha.host[90] txrate 1000Bps
attr unit Bps
par Aloha.host[91] typename "\"Host\""
par Aloha.host[91] arrrate 0.5
par Aloha.host[91] packet_size 1B
attr unit B
par Aloha.host[91] x 29.7454m
attr unit m
par Aloha.host[91] y 96.292m
attr unit m
par Aloha.host[91] txrate 1000Bps
attr unit Bps
par Aloha.host[92] typename "\"Host\""
par Aloha.host[92] arrrate 0.5
par Aloha.host[92] packet_size 1B
attr unit B
par Aloha.host[92] x 72.9106m
attr unit m
par Aloha.host[92] y 185.482m
attr unit m
par Aloha.host[92] txrate 1000Bps
attr unit Bps
par Aloha.host[93] typename "\"Host\""
par Aloha.host[93] arrrate 0.5
par Aloha.host[93] packet_size 1B
attr unit B
par Aloha.host[93] x 173.155m
attr unit m
par Aloha.host[93] y 35.4816m
attr unit m
par Aloha.host[93] txrate 1000Bps
attr unit Bps
par Aloha.host[94] typename "\"Host\""
par Aloha.host[94] arrrate 0.5
par Aloha.host[94] packet_size 1B
attr unit B
par Aloha.host[94] x 70.057m
attr unit m
par Aloha.host[94] y 30.6057m
attr unit m
par Aloha.host[94] txrate 1000Bps
attr unit Bps
par Aloha.host[95] typename "\"Host\""
par Aloha.host[95] arrrate 0.5
par Aloha.host[95] packet_size 1B
attr unit B
par Aloha.host[95] x 37.8052m
attr unit m
par Aloha.host[95] y 193.536m
attr unit m
par Aloha.host[95] txrate 1000Bps
attr unit Bps
par Aloha.host[96] typename "\"Host\""
par Aloha.host[96] arrrate 0.5
par Aloha.host[96] packet_size 1B
attr unit B
par Aloha.host[96] x 94.5243m
attr unit m
par Aloha.host[96] y 64.1231m
attr unit m
par Aloha.host[96] txrate 1000Bps
attr unit Bps
par Aloha.host[97] typename "\"Host\""
par Aloha.host[97] arrrate 0.5
par Aloha.host[97] packet_size 1B
attr unit B
par Aloha.host[97] x 78.5562m
attr unit m
par Aloha.host[97] y 177.159m
attr unit m
par Aloha.host[97] txrate 1000Bps
attr unit Bps
par Aloha.host[98] typename "\"Host\""
par Aloha.host[98] arrrate 0.5
par Aloha.host[98] packet_size 1B
attr unit B
par Aloha.host[98] x 123.786m
attr unit m
par Aloha.host[98] y 109.075m
attr unit m
par Aloha.host[98] txrate 1000Bps
attr unit Bps
par Aloha.host[99] typename "\"Host\""
par Aloha.host[99] arrrate 0.5
par Aloha.host[99] packet_size 1B
attr unit B
par Aloha.host[99] x 87.3533m
attr unit m
par Aloha.host[99] y 74.2212m
attr unit m
par Aloha.host[99] txrate 1000Bps
attr unit Bps
par Aloha.host[100] typename "\"Host\""
par Aloha.host[100] arrrate 0.5
par Aloha.host[100] packet_size 1B
attr unit B
par Aloha.host[100] x 52.1844m
attr unit m
par Aloha.host[100] y 27.3852m
attr unit m
par Aloha.host[100] txrate 1000Bps
attr unit Bps
par Aloha.host[101] typename "\"Host\""
par Aloha.host[101] arrrate 0.5
par Aloha.host[101] packet_size 1B
attr unit B
par Aloha.host[101] x 82.4944m
attr unit m
par Aloha.host[101] y 22.5021m
attr unit m
par Aloha.host[101] txrate 1000Bps
attr unit Bps
par Aloha.host[102] typename "\"Host\""
par Aloha.host[102] arrrate 0.5
par Aloha.host[102] packet_size 1B
attr unit B
par Aloha.host[102] x 83.8068m
attr unit m
par Aloha.host[102] y 14.4567m
attr unit m
par Aloha.host[102] txrate 1000Bps
attr unit Bps
par Aloha.host[103] typename "\"Host\""
par Aloha.host[103] arrrate 0.5
par Aloha.host[103] packet_size 1B
attr unit B
par Aloha.host[103] x 180.484m
attr unit m
par Aloha.host[103] y 38.6478m
attr unit m
par Aloha.host[103] txrate 1000Bps
attr unit Bps
par Aloha.host[104] typename "\"Host\""
par Aloha.host[104] arrrate 0.5
par Aloha.host[104] packet_size 1B
attr unit B
par Aloha.host[104] x 195.923m
attr unit m
par Aloha.host[104] y 0.585319m
attr unit m
par Aloha.host[104] txrate 1000Bps
attr unit Bps
par Aloha.host[105] typename "\"Host\""
par Aloha.host[105] arrrate 0.5
par Aloha.host[105] packet_size 1B
attr unit B
par Aloha.host[105] x 124.714m
attr unit m
par Aloha.host[105] y 175.359m
attr unit m
par Aloha.host[105] txrate 1000Bps
attr unit Bps
par Aloha.host[106] typename "\"Host\""
par Aloha.host[106] arrrate 0.5
par Aloha.host[106] packet_size 1B
attr unit B
par Aloha.host[106] x 16.6368m
attr unit m
par Aloha.host[106] y 187.427m
attr unit m
par Aloha.host[106] txrate 1000Bps
attr unit Bps
par Aloha.host[107] typename "\"Host\""
par Aloha.host[107] arrrate 0.5
par Aloha.host[107] packet_size 1B
attr unit B
par Aloha.host[107] x 146.6m
attr unit m
par Aloha.host[107] y 100.53m
attr unit m
par Aloha.host[107] txrate 1000Bps
attr unit Bps
par Aloha.host[108] typename "\"Host\""
par Aloha.host[108] arrrate 0.5
par Aloha.host[108] packet_size 1B
attr unit B
par Aloha.host[108] x 135.737m
attr unit m
par Aloha.host[108] y 149.499m
attr unit m
par Aloha.host[108] txrate 1000Bps
attr unit Bps
par Aloha.host[109] typename "\"Host\""
par Aloha.host[109] arrrate 0.5
par Aloha.host[109] packet_size 1B
attr unit B
par Aloha.host[109] x 165.205m
attr unit m
par Aloha.host[109] y 97.6342m
attr unit m
par Aloha.host[109] txrate 1000Bps
attr unit Bps
par Aloha.host[110] typename "\"Host\""
par Aloha.host[110] arrrate 0.5
par Aloha.host[110] packet_size 1B
attr unit B
par Aloha.host[110] x 69.4903m
attr unit m
par Aloha.host[110] y 0.784179m
attr unit m
par Aloha.host[110] txrate 1000Bps
attr unit Bps
par Aloha.host[111] typename "\"Host\""
par Aloha.host[111] arrrate 0.5
par Aloha.host[111] packet_size 1B
attr unit B
par Aloha.host[111] x 11.776m
attr unit m
par Aloha.host[111] y 92.4659m
attr unit m
par Aloha.host[111] txrate 1000Bps
attr unit Bps
par Aloha.host[112] typename "\"Host\""
par Aloha.host[112] arrrate 0.5
par Aloha.host[112] packet_size 1B
attr unit B
par Aloha.host[112] x 122.364m
attr unit m
par Aloha.host[112] y 29.0925m
attr unit m
par Aloha.host[112] txrate 1000Bps
attr unit Bps
par Aloha.host[113] typename "\"Host\""
par Aloha.host[113] arrrate 0.5
par Aloha.host[113] packet_size 1B
attr unit B
par Aloha.host[113] x 24.8029m
attr unit m
par Aloha.host[113] y 61.7589m
attr unit m
par Aloha.host[113] txrate 1000Bps
attr unit Bps
par Aloha.host[114] typename "\"Host\""
par Aloha.host[114] arrrate 0.5
par Aloha.host[114] packet_size 1B
attr unit B
par Aloha.host[114] x 151.906m
attr unit m
par Aloha.host[114] y 150.642m
attr unit m
par Aloha.host[114] txrate 1000Bps
attr unit Bps
par Aloha.host[115] typename "\"Host\""
par Aloha.host[115] arrrate 0.5
par Aloha.host[115] packet_size 1B
attr unit B
par Aloha.host[115] x 158.885m
attr unit m
par Aloha.host[115] y 151.072m
attr unit m
par Aloha.host[115] txrate 1000Bps
attr unit Bps
par Aloha.host[116] typename "\"Host\""
par Aloha.host[116] arrrate 0.5
par Aloha.host[116] packet_size 1B
attr unit B
par Aloha.host[116] x 81.7254m
attr unit m
par Aloha.host[116] y 183.502m
attr unit m
par Aloha.host[116] txrate 1000Bps
attr unit Bps
par Aloha.host[117] typename "\"Host\""
par Aloha.host[117] arrrate 0.5
par Aloha.host[117] packet_size 1B
attr unit B
par Aloha.host[117] x 188.76m
attr unit m
par Aloha.host[117] y 186.338m
attr unit m
par Aloha.host[117] txrate 1000Bps
attr unit Bps
par Aloha.host[118] typename "\"Host\""
par Aloha.host[118] arrrate 0.5
par Aloha.host[118] packet_size 1B
attr unit B
par Aloha.host[118] x 34.756m
attr unit m
par Aloha.host[118] y 18.0283m
attr unit m
par Aloha.host[118] txrate 1000Bps
attr unit Bps
par Aloha.host[119] typename "\"Host\""
par Aloha.host[119] arrrate 0.5
par Aloha.host[119] packet_size 1B
attr unit B
par Aloha.host[119] x 188.517m
attr unit m
par Aloha.host[119] y 39.0609m
attr unit m
par Aloha.host[119] txrate 1000Bps
attr unit Bps
par Aloha.host[120] typename "\"Host\""
par Aloha.host[120] arrrate 0.5
par Aloha.host[120] packet_size 1B
attr unit B
par Aloha.host[120] x 93.0979m
attr unit m
par Aloha.host[120] y 112.294m
attr unit m
par Aloha.host[120] txrate 1000Bps
attr unit Bps
par Aloha.host[121] typename "\"Host\""
par Aloha.host[121] arrrate 0.5
par Aloha.host[121] packet_size 1B
attr unit B
par Aloha.host[121] x 152.599m
attr unit m
par Aloha.host[121] y 2.08533m
attr unit m
par Aloha.host[121] txrate 1000Bps
attr unit Bps
par Aloha.host[122] typename "\"Host\""
par Aloha.host[122] arrrate 0.5
par Aloha.host[122] packet_size 1B
attr unit B
par Aloha.host[122] x 150.564m
attr unit m
par Aloha.host[122] y 45.9794m
attr unit m
par Aloha.host[122] txrate 1000Bps
attr unit Bps
par Aloha.host[123] typename "\"Host\""
par Aloha.host[123] arrrate 0.5
par Aloha.host[123] packet_size 1B
attr unit B
par Aloha.host[123] x 196.242m
attr unit m
par Aloha.host[123] y 7.37231m
attr unit m
par Aloha.host[123] txrate 1000Bps
attr unit Bps
par Aloha.host[124] typename "\"Host\""
par Aloha.host[124] arrrate 0.5
par Aloha.host[124] packet_size 1B
attr unit B
par Aloha.host[124] x 194.656m
attr unit m
par Aloha.host[124] y 16.8765m
attr unit m
par Aloha.host[124] txrate 1000Bps
attr unit Bps
par Aloha.host[125] typename "\"Host\""
par Aloha.host[125] arrrate 0.5
par Aloha.host[125] packet_size 1B
attr unit B
par Aloha.host[125] x 8.01822m
attr unit m
par Aloha.host[125] y 132.46m
attr unit m
par Aloha.host[125] txrate 1000Bps
attr unit Bps
par Aloha.host[126] typename "\"Host\""
par Aloha.host[126] arrrate 0.5
par Aloha.host[126] packet_size 1B
attr unit B
par Aloha.host[126] x 3.19426m
attr unit m
par Aloha.host[126] y 116.709m
attr unit m
par Aloha.host[126] txrate 1000Bps
attr unit Bps
par Aloha.host[127] typename "\"Host\""
par Aloha.host[127] arrrate 0.5
par Aloha.host[127] packet_size 1B
attr unit B
par Aloha.host[127] x 108.658m
attr unit m
par Aloha.host[127] y 145.373m
attr unit m
par Aloha.host[127] txrate 1000Bps
attr unit Bps
par Aloha.host[128] typename "\"Host\""
par Aloha.host[128] arrrate 0.5
par Aloha.host[128] packet_size 1B
attr unit B
par Aloha.host[128] x 6.77552m
attr unit m
par Aloha.host[128] y 180.875m
attr unit m
par Aloha.host[128] txrate 1000Bps
attr unit Bps
par Aloha.host[129] typename "\"Host\""
par Aloha.host[129] arrrate 0.5
par Aloha.host[129] packet_size 1B
attr unit B
par Aloha.host[129] x 131.497m
attr unit m
par Aloha.host[129] y 3.34353m
attr unit m
par Aloha.host[129] txrate 1000Bps
attr unit Bps
par Aloha.host[130] typename "\"Host\""
par Aloha.host[130] arrrate 0.5
par Aloha.host[130] packet_size 1B
attr unit B
par Aloha.host[130] x 106.981m
attr unit m
par Aloha.host[130] y 179.338m
attr unit m
par Aloha.host[130] txrate 1000Bps
attr unit Bps
par Aloha.host[131] typename "\"Host\""
par Aloha.host[131] arrrate 0.5
par Aloha.host[131] packet_size 1B
attr unit B
par Aloha.host[131] x 133.312m
attr unit m
par Aloha.host[131] y 100.78m
attr unit m
par Aloha.host[131] txrate 1000Bps
attr unit Bps
par Aloha.host[132] typename "\"Host\""
par Aloha.host[132] arrrate 0.5
par Aloha.host[132] packet_size 1B
attr unit B
par Aloha.host[132] x 88.2681m
attr unit m
par Aloha.host[132] y 122.964m
attr unit m
par Aloha.host[132] txrate 1000Bps
attr unit Bps
par Aloha.host[133] typename "\"Host\""
par Aloha.host[133] arrrate 0.5
par Aloha.host[133] packet_size 1B
attr unit B
par Aloha.host[133] x 54.4943m
attr unit m
par Aloha.host[133] y 26.9491m
attr unit m
par Aloha.host[133] txrate 1000Bps
attr unit Bps
par Aloha.host[134] typename "\"Host\""
par Aloha.host[134] arrrate 0.5
par Aloha.host[134] packet_size 1B
attr unit B
par Aloha.host[134] x 189.934m
attr unit m
par Aloha.host[134] y 94.3936m
attr unit m
par Aloha.host[134] txrate 1000Bps
attr unit Bps
par Aloha.host[135] typename "\"Host\""
par Aloha.host[135] arrrate 0.5
par Aloha.host[135] packet_size 1B
attr unit B
par Aloha.host[135] x 145.654m
attr unit m
par Aloha.host[135] y 126.914m
attr unit m
par Aloha.host[135] txrate 1000Bps
attr unit Bps
par Aloha.host[136] typename "\"Host\""
par Aloha.host[136] arrrate 0.5
par Aloha.host[136] packet_size 1B
attr unit B
par Aloha.host[136] x 1.26479m
attr unit m
par Aloha.host[136] y 98.3575m
attr unit m
par Aloha.host[136] txrate 1000Bps
attr unit Bps
par Aloha.host[137] typename "\"Host\""
par Aloha.host[137] arrrate 0.5
par Aloha.host[137] packet_size 1B
attr unit B
par Aloha.host[137] x 19.8656m
attr unit m
par Aloha.host[137] y 186.283m
attr unit m
par Aloha.host[137] txrate 1000Bps
attr unit Bps
par Aloha.host[138] typename "\"Host\""
par Aloha.host[138] arrrate 0.5
par Aloha.host[138] packet_size 1B
attr unit B
par Aloha.host[138] x 126.338m
attr unit m
par Aloha.host[138] y 187.179m
attr unit m
par Aloha.host[138] txrate 1000Bps
attr unit Bps
par Aloha.host[139] typename "\"Host\""
par Aloha.host[139] arrrate 0.5
par Aloha.host[139] packet_size 1B
attr unit B
par Aloha.host[139] x 57.6074m
attr unit m
par Aloha.host[139] y 99.9923m
attr unit m
par Aloha.host[139] txrate 1000Bps
attr unit Bps
par Aloha.host[140] typename "\"Host\""
par Aloha.host[140] arrrate 0.5
par Aloha.host[140] packet_size 1B
attr unit B
par Aloha.host[140] x 81.5243m
attr unit m
par Aloha.host[140] y 81.9271m
attr unit m
par Aloha.host[140] txrate 1000Bps
attr unit Bps
par Aloha.host[141] typename "\"Host\""
par Aloha.host[141] arrrate 0.5
par Aloha.host[141] packet_size 1B
attr unit B
par Aloha.host[141] x 156.306m
attr unit m
par Aloha.host[141] y 162.167m
attr unit m
par Aloha.host[141] txrate 1000Bps
attr unit Bps
par Aloha.host[142] typename "\"Host\""
par Aloha.host[142] arrrate 0.5
par Aloha.host[142] packet_size 1B
attr unit B
par Aloha.host[142] x 70.8291m
attr unit m
par Aloha.host[142] y 103.154m
attr unit m
par Aloha.host[142] txrate 1000Bps
attr unit Bps
par Aloha.host[143] typename "\"Host\""
par Aloha.host[143] arrrate 0.5
par Aloha.host[143] packet_size 1B
attr unit B
par Aloha.host[143] x 185.162m
attr unit m
par Aloha.host[143] y 97.9378m
attr unit m
par Aloha.host[143] txrate 1000Bps
attr unit Bps
par Aloha.host[144] typename "\"Host\""
par Aloha.host[144] arrrate 0.5
par Aloha.host[144] packet_size 1B
attr unit B
par Aloha.host[144] x 144.09m
attr unit m
par Aloha.host[144] y 174.078m
attr unit m
par Aloha.host[144] txrate 1000Bps
attr unit Bps
par Aloha.host[145] typename "\"Host\""
par Aloha.host[145] arrrate 0.5
par Aloha.host[145] packet_size 1B
attr unit B
par Aloha.host[145] x 110.385m
attr unit m
par Aloha.host[145] y 179.618m
attr unit m
par Aloha.host[145] txrate 1000Bps
attr unit Bps
par Aloha.host[146] typename "\"Host\""
par Aloha.host[146] arrrate 0.5
par Aloha.host[146] packet_size 1B
attr unit B
par Aloha.host[146] x 36.193m
attr unit m
par Aloha.host[146] y 27.8364m
attr unit m
par Aloha.host[146] txrate 1000Bps
attr unit Bps
par Aloha.host[147] typename "\"Host\""
par Aloha.host[147] arrrate 0.5
par Aloha.host[147] packet_size 1B
attr unit B
par Aloha.host[147] x 81.9183m
attr unit m
par Aloha.host[147] y 145.911m
attr unit m
par Aloha.host[147] txrate 1000Bps
attr unit Bps
par Aloha.host[148] typename "\"Host\""
par Aloha.host[148] arrrate 0.5
par Aloha.host[148] packet_size 1B
attr unit B
par Aloha.host[148] x 152.576m
attr unit m
par Aloha.host[148] y 113.069m
attr unit m
par Aloha.host[148] txrate 1000Bps
attr unit Bps
par Aloha.host[149] typename "\"Host\""
par Aloha.host[149] arrrate 0.5
par Aloha.host[149] packet_size 1B
attr unit B
par Aloha.host[149] x 198.159m
attr unit m
par Aloha.host[149] y 178.198m
attr unit m
par Aloha.host[149] txrate 1000Bps
attr unit Bps
par Aloha.host[150] typename "\"Host\""
par Aloha.host[150] arrrate 0.5
par Aloha.host[150] packet_size 1B
attr unit B
par Aloha.host[150] x 14.7305m
attr unit m
par Aloha.host[150] y 63.2553m
attr unit m
par Aloha.host[150] txrate 1000Bps
attr unit Bps
par Aloha.host[151] typename "\"Host\""
par Aloha.host[151] arrrate 0.5
par Aloha.host[151] packet_size 1B
attr unit B
par Aloha.host[151] x 26.9505m
attr unit m
par Aloha.host[151] y 150.771m
attr unit m
par Aloha.host[151] txrate 1000Bps
attr unit Bps
par Aloha.host[152] typename "\"Host\""
par Aloha.host[152] arrrate 0.5
par Aloha.host[152] packet_size 1B
attr unit B
par Aloha.host[152] x 148.009m
attr unit m
par Aloha.host[152] y 55.8464m
attr unit m
par Aloha.host[152] txrate 1000Bps
attr unit Bps
par Aloha.host[153] typename "\"Host\""
par Aloha.host[153] arrrate 0.5
par Aloha.host[153] packet_size 1B
attr unit B
par Aloha.host[153] x 166.756m
attr unit m
par Aloha.host[153] y 23.9153m
attr unit m
par Aloha.host[153] txrate 1000Bps
attr unit Bps
par Aloha.host[154] typename "\"Host\""
par Aloha.host[154] arrrate 0.5
par Aloha.host[154] packet_size 1B
attr unit B
par Aloha.host[154] x 17.7546m
attr unit m
par Aloha.host[154] y 45.3962m
attr unit m
par Aloha.host[154] txrate 1000Bps
attr unit Bps
par Aloha.host[155] typename "\"Host\""
par Aloha.host[155] arrrate 0.5
par Aloha.host[155] packet_size 1B
attr unit B
par Aloha.host[155] x 165.884m
attr unit m
par Aloha.host[155] y 154.794m
attr unit m
par Aloha.host[155] txrate 1000Bps
attr unit Bps
par Aloha.host[156] typename "\"Host\""
par Aloha.host[156] arrrate 0.5
par Aloha.host[156] packet_size 1B
attr unit B
par Aloha.host[156] x 157.346m
attr unit m
par Aloha.host[156] y 157.532m
attr unit m
par Aloha.host[156] txrate 1000Bps
attr unit Bps
par Aloha.host[157] typename "\"Host\""
par Aloha.host[157] arrrate 0.5
par Aloha.host[157] packet_size 1B
attr unit B
par Aloha.host[157] x 137.644m
attr unit m
par Aloha.host[157] y 130.145m
attr unit m
par Aloha.host[157] txrate 1000Bps
attr unit Bps
par Aloha.host[158] typename "\"Host\""
par Aloha.host[158] arrrate 0.5
par Aloha.host[158] packet_size 1B
attr unit B
par Aloha.host[158] x 67.9853m
attr unit m
par Aloha.host[158] y 61.4833m
attr unit m
par Aloha.host[158] txrate 1000Bps
attr unit Bps
par Aloha.host[159] typename "\"Host\""
par Aloha.host[159] arrrate 0.5
par Aloha.host[159] packet_size 1B
attr unit B
par Aloha.host[159] x 88.9081m
attr unit m
par Aloha.host[159] y 199.481m
attr unit m
par Aloha.host[159] txrate 1000Bps
attr unit Bps
par Aloha.host[160] typename "\"Host\""
par Aloha.host[160] arrrate 0.5
par Aloha.host[160] packet_size 1B
attr unit B
par Aloha.host[160] x 73.2672m
attr unit m
par Aloha.host[160] y 58.9265m
attr unit m
par Aloha.host[160] txrate 1000Bps
attr unit Bps
par Aloha.host[161] typename "\"Host\""
par Aloha.host[161] arrrate 0.5
par Aloha.host[161] packet_size 1B
attr unit B
par Aloha.host[161] x 168.093m
attr unit m
par Aloha.host[161] y 133.622m
attr unit m
par Aloha.host[161] txrate 1000Bps
attr unit Bps
par Aloha.host[162] typename "\"Host\""
par Aloha.host[162] arrrate 0.5
par Aloha.host[162] packet_size 1B
attr unit B
par Aloha.host[162] x 65.6644m
attr unit m
par Aloha.host[162] y 52.8521m
attr unit m
par Aloha.host[162] txrate 1000Bps
attr unit Bps
par Aloha.host[163] typename "\"Host\""
par Aloha.host[163] arrrate 0.5
par Aloha.host[163] packet_size 1B
attr unit B
par Aloha.host[163] x 64.515m
attr unit m
par Aloha.host[163] y 84.4732m
attr unit m
par Aloha.host[163] txrate 1000Bps
attr unit Bps
par Aloha.host[164] typename "\"Host\""
par Aloha.host[164] arrrate 0.5
par Aloha.host[164] packet_size 1B
attr unit B
par Aloha.host[164] x 187.058m
attr unit m
par Aloha.host[164] y 175.416m
attr unit m
par Aloha.host[164] txrate 1000Bps
attr unit Bps
par Aloha.host[165] typename "\"Host\""
par Aloha.host[165] arrrate 0.5
par Aloha.host[165] packet_size 1B
attr unit B
par Aloha.host[165] x 183.997m
attr unit m
par Aloha.host[165] y 119.352m
attr unit m
par Aloha.host[165] txrate 1000Bps
attr unit Bps
par Aloha.host[166] typename "\"Host\""
par Aloha.host[166] arrrate 0.5
par Aloha.host[166] packet_size 1B
attr unit B
par Aloha.host[166] x 193.735m
attr unit m
par Aloha.host[166] y 56.1025m
attr unit m
par Aloha.host[166] txrate 1000Bps
attr unit Bps
par Aloha.host[167] typename "\"Host\""
par Aloha.host[167] arrrate 0.5
par Aloha.host[167] packet_size 1B
attr unit B
par Aloha.host[167] x 161.51m
attr unit m
par Aloha.host[167] y 149.848m
attr unit m
par Aloha.host[167] txrate 1000Bps
attr unit Bps
par Aloha.host[168] typename "\"Host\""
par Aloha.host[168] arrrate 0.5
par Aloha.host[168] packet_size 1B
attr unit B
par Aloha.host[168] x 17.3831m
attr unit m
par Aloha.host[168] y 145.546m
attr unit m
par Aloha.host[168] txrate 1000Bps
attr unit Bps
par Aloha.host[169] typename "\"Host\""
par Aloha.host[169] arrrate 0.5
par Aloha.host[169] packet_size 1B
attr unit B
par Aloha.host[169] x 18.1821m
attr unit m
par Aloha.host[169] y 137.957m
attr unit m
par Aloha.host[169] txrate 1000Bps
attr unit Bps
par Aloha.host[170] typename "\"Host\""
par Aloha.host[170] arrrate 0.5
par Aloha.host[170] packet_size 1B
attr unit B
par Aloha.host[170] x 111.416m
attr unit m
par Aloha.host[170] y 90.3241m
attr unit m
par Aloha.host[170] txrate 1000Bps
attr unit Bps
par Aloha.host[171] typename "\"Host\""
par Aloha.host[171] arrrate 0.5
par Aloha.host[171] packet_size 1B
attr unit B
par Aloha.host[171] x 171.237m
attr unit m
par Aloha.host[171] y 96.8808m
attr unit m
par Aloha.host[171] txrate 1000Bps
attr unit Bps
par Aloha.host[172] typename "\"Host\""
par Aloha.host[172] arrrate 0.5
par Aloha.host[172] packet_size 1B
attr unit B
par Aloha.host[172] x 176.84m
attr unit m
par Aloha.host[172] y 81.0427m
attr unit m
par Aloha.host[172] txrate 1000Bps
attr unit Bps
par Aloha.host[173] typename "\"Host\""
par Aloha.host[173] arrrate 0.5
par Aloha.host[173] packet_size 1B
attr unit B
par Aloha.host[173] x 127.37m
attr unit m
par Aloha.host[173] y 190.394m
attr unit m
par Aloha.host[173] txrate 1000Bps
attr unit Bps
par Aloha.host[174] typename "\"Host\""
par Aloha.host[174] arrrate 0.5
par Aloha.host[174] packet_size 1B
attr unit B
par Aloha.host[174] x 191.161m
attr unit m
par Aloha.host[174] y 3.29672m
attr unit m
par Aloha.host[174] txrate 1000Bps
attr unit Bps
par Aloha.host[175] typename "\"Host\""
par Aloha.host[175] arrrate 0.5
par Aloha.host[175] packet_size 1B
attr unit B
par Aloha.host[175] x 30.3771m
attr unit m
par Aloha.host[175] y 62.6733m
attr unit m
par Aloha.host[175] txrate 1000Bps
attr unit Bps
par Aloha.host[176] typename "\"Host\""
par Aloha.host[176] arrrate 0.5
par Aloha.host[176] packet_size 1B
attr unit B
par Aloha.host[176] x 44.3162m
attr unit m
par Aloha.host[176] y 198.023m
attr unit m
par Aloha.host[176] txrate 1000Bps
attr unit Bps
par Aloha.host[177] typename "\"Host\""
par Aloha.host[177] arrrate 0.5
par Aloha.host[177] packet_size 1B
attr unit B
par Aloha.host[177] x 66.499m
attr unit m
par Aloha.host[177] y 176.808m
attr unit m
par Aloha.host[177] txrate 1000Bps
attr unit Bps
par Aloha.host[178] typename "\"Host\""
par Aloha.host[178] arrrate 0.5
par Aloha.host[178] packet_size 1B
attr unit B
par Aloha.host[178] x 51.361m
attr unit m
par Aloha.host[178] y 3.98847m
attr unit m
par Aloha.host[178] txrate 1000Bps
attr unit Bps
par Aloha.host[179] typename "\"Host\""
par Aloha.host[179] arrrate 0.5
par Aloha.host[179] packet_size 1B
attr unit B
par Aloha.host[179] x 62.441m
attr unit m
par Aloha.host[179] y 20.559m
attr unit m
par Aloha.host[179] txrate 1000Bps
attr unit Bps
par Aloha.host[180] typename "\"Host\""
par Aloha.host[180] arrrate 0.5
par Aloha.host[180] packet_size 1B
attr unit B
par Aloha.host[180] x 23.6891m
attr unit m
par Aloha.host[180] y 18.8161m
attr unit m
par Aloha.host[180] txrate 1000Bps
attr unit Bps
par Aloha.host[181] typename "\"Host\""
par Aloha.host[181] arrrate 0.5
par Aloha.host[181] packet_size 1B
attr unit B
par Aloha.host[181] x 75.068m
attr unit m
par Aloha.host[181] y 53.1595m
attr unit m
par Aloha.host[181] txrate 1000Bps
attr unit Bps
par Aloha.host[182] typename "\"Host\""
par Aloha.host[182] arrrate 0.5
par Aloha.host[182] packet_size 1B
attr unit B
par Aloha.host[182] x 5.9548m
attr unit m
par Aloha.host[182] y 38.9895m
attr unit m
par Aloha.host[182] txrate 1000Bps
attr unit Bps
par Aloha.host[183] typename "\"Host\""
par Aloha.host[183] arrrate 0.5
par Aloha.host[183] packet_size 1B
attr unit B
par Aloha.host[183] x 107.556m
attr unit m
par Aloha.host[183] y 78.8273m
attr unit m
par Aloha.host[183] txrate 1000Bps
attr unit Bps
par Aloha.host[184] typename "\"Host\""
par Aloha.host[184] arrrate 0.5
par Aloha.host[184] packet_size 1B
attr unit B
par Aloha.host[184] x 189.166m
attr unit m
par Aloha.host[184] y 157.891m
attr unit m
par Aloha.host[184] txrate 1000Bps
attr unit Bps
par Aloha.host[185] typename "\"Host\""
par Aloha.host[185] arrrate 0.5
par Aloha.host[185] packet_size 1B
attr unit B
par Aloha.host[185] x 89.025m
attr unit m
par Aloha.host[185] y 17.6221m
attr unit m
par Aloha.host[185] txrate 1000Bps
attr unit Bps
par Aloha.host[186] typename "\"Host\""
par Aloha.host[186] arrrate 0.5
par Aloha.host[186] packet_size 1B
attr unit B
par Aloha.host[186] x 124.831m
attr unit m
par Aloha.host[186] y 75.569m
attr unit m
par Aloha.host[186] txrate 1000Bps
attr unit Bps
par Aloha.host[187] typename "\"Host\""
par Aloha.host[187] arrrate 0.5
par Aloha.host[187] packet_size 1B
attr unit B
par Aloha.host[187] x 122.362m
attr unit m
par Aloha.host[187] y 78.3336m
attr unit m
par Aloha.host[187] txrate 1000Bps
attr unit Bps
par Aloha.host[188] typename "\"Host\""
par Aloha.host[188] arrrate 0.5
par Aloha.host[188] packet_size 1B
attr unit B
par Aloha.host[188] x 186.676m
attr unit m
par Aloha.host[188] y 60.4735m
attr unit m
par Aloha.host[188] txrate 1000Bps
attr unit Bps
par Aloha.host[189] typename "\"Host\""
par Aloha.host[189] arrrate 0.5
par Aloha.host[189] packet_size 1B
attr unit B
par Aloha.host[189] x 146.904m
attr unit m
par Aloha.host[189] y 93.5065m
attr unit m
par Aloha.host[189] txrate 1000Bps
attr unit Bps
par Aloha.host[190] typename "\"Host\""
par Aloha.host[190] arrrate 0.5
par Aloha.host[190] packet_size 1B
attr unit B
par Aloha.host[190] x 164.964m
attr unit m
par Aloha.host[190] y 198.133m
attr unit m
par Aloha.host[190] txrate 1000Bps
attr unit Bps
par Aloha.host[191] typename "\"Host\""
par Aloha.host[191] arrrate 0.5
par Aloha.host[191] packet_size 1B
attr unit B
par Aloha.host[191] x 67.1699m
attr unit m
par Aloha.host[191] y 149.45m
attr unit m
par Aloha.host[191] txrate 1000Bps
attr unit Bps
par Aloha.host[192] typename "\"Host\""
par Aloha.host[192] arrrate 0.5
par Aloha.host[192] packet_size 1B
attr unit B
par Aloha.host[192] x 181.493m
attr unit m
par Aloha.host[192] y 16.7801m
attr unit m
par Aloha.host[192] txrate 1000Bps
attr unit Bps
par Aloha.host[193] typename "\"Host\""
par Aloha.host[193] arrrate 0.5
par Aloha.host[193] packet_size 1B
attr unit B
par Aloha.host[193] x 37.0418m
attr unit m
par Aloha.host[193] y 123.072m
attr unit m
par Aloha.host[193] txrate 1000Bps
attr unit Bps
par Aloha.host[194] typename "\"Host\""
par Aloha.host[194] arrrate 0.5
par Aloha.host[194] packet_size 1B
attr unit B
par Aloha.host[194] x 81.5965m
attr unit m
par Aloha.host[194] y 39.0462m
attr unit m
par Aloha.host[194] txrate 1000Bps
attr unit Bps
par Aloha.host[195] typename "\"Host\""
par Aloha.host[195] arrrate 0.5
par Aloha.host[195] packet_size 1B
attr unit B
par Aloha.host[195] x 147.49m
attr unit m
par Aloha.host[195] y 76.1669m
attr unit m
par Aloha.host[195] txrate 1000Bps
attr unit Bps
par Aloha.host[196] typename "\"Host\""
par Aloha.host[196] arrrate 0.5
par Aloha.host[196] packet_size 1B
attr unit B
par Aloha.host[196] x 66.6913m
attr unit m
par Aloha.host[196] y 189.487m
attr unit m
par Aloha.host[196] txrate 1000Bps
attr unit Bps
par Aloha.host[197] typename "\"Host\""
par Aloha.host[197] arrrate 0.5
par Aloha.host[197] packet_size 1B
attr unit B
par Aloha.host[197] x 177.227m
attr unit m
par Aloha.host[197] y 47.0756m
attr unit m
par Aloha.host[197] txrate 1000Bps
attr unit Bps
par Aloha.host[198] typename "\"Host\""
par Aloha.host[198] arrrate 0.5
par Aloha.host[198] packet_size 1B
attr unit B
par Aloha.host[198] x 172.131m
attr unit m
par Aloha.host[198] y 81.1518m
attr unit m
par Aloha.host[198] txrate 1000Bps
attr unit Bps
par Aloha.host[199] typename "\"Host\""
par Aloha.host[199] arrrate 0.5
par Aloha.host[199] packet_size 1B
attr unit B
par Aloha.host[199] x 33.0236m
attr unit m
par Aloha.host[199] y 194.341m
attr unit m
par Aloha.host[199] txrate 1000Bps
attr unit Bps
par Aloha.host[200] typename "\"Host\""
par Aloha.host[200] arrrate 0.5
par Aloha.host[200] packet_size 1B
attr unit B
par Aloha.host[200] x 46.1492m
attr unit m
par Aloha.host[200] y 8.7845m
attr unit m
par Aloha.host[200] txrate 1000Bps
attr unit Bps
par Aloha.host[201] typename "\"Host\""
par Aloha.host[201] arrrate 0.5
par Aloha.host[201] packet_size 1B
attr unit B
par Aloha.host[201] x 10.487m
attr unit m
par Aloha.host[201] y 57.0489m
attr unit m
par Aloha.host[201] txrate 1000Bps
attr unit Bps
par Aloha.host[202] typename "\"Host\""
par Aloha.host[202] arrrate 0.5
par Aloha.host[202] packet_size 1B
attr unit B
par Aloha.host[202] x 171.744m
attr unit m
par Aloha.host[202] y 54.0928m
attr unit m
par Aloha.host[202] txrate 1000Bps
attr unit Bps
par Aloha.host[203] typename "\"Host\""
par Aloha.host[203] arrrate 0.5
par Aloha.host[203] packet_size 1B
attr unit B
par Aloha.host[203] x 67.845m
attr unit m
par Aloha.host[203] y 92.57m
attr unit m
par Aloha.host[203] txrate 1000Bps
attr unit Bps
par Aloha.host[204] typename "\"Host\""
par Aloha.host[204] arrrate 0.5
par Aloha.host[204] packet_size 1B
attr unit B
par Aloha.host[204] x 78.6493m
attr unit m
par Aloha.host[204] y 84.9585m
attr unit m
par Aloha.host[204] txrate 1000Bps
attr unit Bps
par Aloha.host[205] typename "\"Host\""
par Aloha.host[205] arrrate 0.5
par Aloha.host[205] packet_size 1B
attr unit B
par Aloha.host[205] x 54.0731m
attr unit m
par Aloha.host[205] y 151.13m
attr unit m
par Aloha.host[205] txrate 1000Bps
attr unit Bps
par Aloha.host[206] typename "\"Host\""
par Aloha.host[206] arrrate 0.5
par Aloha.host[206] packet_size 1B
attr unit B
par Aloha.host[206] x 24.6456m
attr unit m
par Aloha.host[206] y 50.2997m
attr unit m
par Aloha.host[206] txrate 1000Bps
attr unit Bps
par Aloha.host[207] typename "\"Host\""
par Aloha.host[207] arrrate 0.5
par Aloha.host[207] packet_size 1B
attr unit B
par Aloha.host[207] x 91.3878m
attr unit m
par Aloha.host[207] y 172.669m
attr unit m
par Aloha.host[207] txrate 1000Bps
attr unit Bps
par Aloha.host[208] typename "\"Host\""
par Aloha.host[208] arrrate 0.5
par Aloha.host[208] packet_size 1B
attr unit B
par Aloha.host[208] x 46.9434m
attr unit m
par Aloha.host[208] y 117.527m
attr unit m
par Aloha.host[208] txrate 1000Bps
attr unit Bps
par Aloha.host[209] typename "\"Host\""
par Aloha.host[209] arrrate 0.5
par Aloha.host[209] packet_size 1B
attr unit B
par Aloha.host[209] x 112.631m
attr unit m
par Aloha.host[209] y 141.629m
attr unit m
par Aloha.host[209] txrate 1000Bps
attr unit Bps
par Aloha.host[210] typename "\"Host\""
par Aloha.host[210] arrrate 0.5
par Aloha.host[210] packet_size 1B
attr unit B
par Aloha.host[210] x 40.553m
attr unit m
par Aloha.host[210] y 5.08034m
attr unit m
par Aloha.host[210] txrate 1000Bps
attr unit Bps
par Aloha.host[211] typename "\"Host\""
par Aloha.host[211] arrrate 0.5
par Aloha.host[211] packet_size 1B
attr unit B
par Aloha.host[211] x 102.277m
attr unit m
par Aloha.host[211] y 27.271m
attr unit m
par Aloha.host[211] txrate 1000Bps
attr unit Bps
par Aloha.host[212] typename "\"Host\""
par Aloha.host[212] arrrate 0.5
par Aloha.host[212] packet_size 1B
attr unit B
par Aloha.host[212] x 189.665m
attr unit m
par Aloha.host[212] y 109.281m
attr unit m
par Aloha.host[212] txrate 1000Bps
attr unit Bps
par Aloha.host[213] typename "\"Host\""
par Aloha.host[213] arrrate 0.5
par Aloha.host[213] packet_size 1B
attr unit B
par Aloha.host[213] x 74.3667m
attr unit m
par Aloha.host[213] y 52.3684m
attr unit m
par Aloha.host[213] txrate 1000Bps
attr unit Bps
par Aloha.host[214] typename "\"Host\""
par Aloha.host[214] arrrate 0.5
par Aloha.host[214] packet_size 1B
attr unit B
par Aloha.host[214] x 190.844m
attr unit m
par Aloha.host[214] y 36.8923m
attr unit m
par Aloha.host[214] txrate 1000Bps
attr unit Bps
par Aloha.host[215] typename "\"Host\""
par Aloha.host[215] arrrate 0.5
par Aloha.host[215] packet_size 1B
attr unit B
par Aloha.host[215] x 11.4412m
attr unit m
par Aloha.host[215] y 21.5982m
attr unit m
par Aloha.host[215] txrate 1000Bps
attr unit Bps
par Aloha.host[216] typename "\"Host\""
par Aloha.host[216] arrrate 0.5
par Aloha.host[216] packet_size 1B
attr unit B
par Aloha.host[216] x 109.761m
attr unit m
par Aloha.host[216] y 18.1185m
attr unit m
par Aloha.host[216] txrate 1000Bps
attr unit Bps
par Aloha.host[217] typename "\"Host\""
par Aloha.host[217] arrrate 0.5
par Aloha.host[217] packet_size 1B
attr unit B
par Aloha.host[217] x 119.959m
attr unit m
par Aloha.host[217] y 105.503m
attr unit m
par Aloha.host[217] txrate 1000Bps
attr unit Bps
par Aloha.host[218] typename "\"Host\""
par Aloha.host[218] arrrate 0.5
par Aloha.host[218] packet_size 1B
attr unit B
par Aloha.host[218] x 192.351m
attr unit m
par Aloha.host[218] y 40.8623m
attr unit m
par Aloha.host[218] txrate 1000Bps
attr unit Bps
par Aloha.host[219] typename "\"Host\""
par Aloha.host[219] arrrate 0.5
par Aloha.host[219] packet_size 1B
attr unit B
par Aloha.host[219] x 185.037m
attr unit m
par Aloha.host[219] y 58.5722m
attr unit m
par Aloha.host[219] txrate 1000Bps
attr unit Bps
par Aloha.host[220] typename "\"Host\""
par Aloha.host[220] arrrate 0.5
par Aloha.host[220] packet_size 1B
attr unit B
par Aloha.host[220] x 102.181m
attr unit m
par Aloha.host[220] y 185.037m
attr unit m
par Aloha.host[220] txrate 1000Bps
attr unit Bps
par Aloha.host[221] typename "\"Host\""
par Aloha.host[221] arrrate 0.5
par Aloha.host[221] packet_size 1B
attr unit B
par Aloha.host[221] x 151.897m
attr unit m
par Aloha.host[221] y 36.0947m
attr unit m
par Aloha.host[221] txrate 1000Bps
attr unit Bps
par Aloha.host[222] typename "\"Host\""
par Aloha.host[222] arrrate 0.5
par Aloha.host[222] packet_size 1B
attr unit B
par Aloha.host[222] x 195.181m
attr unit m
par Aloha.host[222] y 128.112m
attr unit m
par Aloha.host[222] txrate 1000Bps
attr unit Bps
par Aloha.host[223] typename "\"Host\""
par Aloha.host[223] arrrate 0.5
par Aloha.host[223] packet_size 1B
attr unit B
par Aloha.host[223] x 147.3m
attr unit m
par Aloha.host[223] y 20.11m
attr unit m
par Aloha.host[223] txrate 1000Bps
attr unit Bps
par Aloha.host[224] typename "\"Host\""
par Aloha.host[224] arrrate 0.5
par Aloha.host[224] packet_size 1B
attr unit B
par Aloha.host[224] x 190.791m
attr unit m
par Aloha.host[224] y 87.2342m
attr unit m
par Aloha.host[224] txrate 1000Bps
attr unit Bps
par Aloha.host[225] typename "\"Host\""
par Aloha.host[225] arrrate 0.5
par Aloha.host[225] packet_size 1B
attr unit B
par Aloha.host[225] x 187.779m
attr unit m
par Aloha.host[225] y 147.422m
attr unit m
par Aloha.host[225] txrate 1000Bps
attr unit Bps
par Aloha.host[226] typename "\"Host\""
par Aloha.host[226] arrrate 0.5
par Aloha.host[226] packet_size 1B
attr unit B
par Aloha.host[226] x 96.3534m
attr unit m
par Aloha.host[226] y 165.622m
attr unit m
par Aloha.host[226] txrate 1000Bps
attr unit Bps
par Aloha.host[227] typename "\"Host\""
par Aloha.host[227] arrrate 0.5
par Aloha.host[227] packet_size 1B
attr unit B
par Aloha.host[227] x 131.979m
attr unit m
par Aloha.host[227] y 77.8101m
attr unit m
par Aloha.host[227] txrate 1000Bps
attr unit Bps
par Aloha.host[228] typename "\"Host\""
par Aloha.host[228] arrrate 0.5
par Aloha.host[228] packet_size 1B
attr unit B
par Aloha.host[228] x 35.9699m
attr unit m
par Aloha.host[228] y 22.3749m
attr unit m
par Aloha.host[228] txrate 1000Bps
attr unit Bps
par Aloha.host[229] typename "\"Host\""
par Aloha.host[229] arrrate 0.5
par Aloha.host[229] packet_size 1B
attr unit B
par Aloha.host[229] x 87.4047m
attr unit m
par Aloha.host[229] y 110.055m
attr unit m
par Aloha.host[229] txrate 1000Bps
attr unit Bps
par Aloha.host[230] typename "\"Host\""
par Aloha.host[230] arrrate 0.5
par Aloha.host[230] packet_size 1B
attr unit B
par Aloha.host[230] x 173.225m
attr unit m
par Aloha.host[230] y 158.4m
attr unit m
par Aloha.host[230] txrate 1000Bps
attr unit Bps
par Aloha.host[231] typename "\"Host\""
par Aloha.host[231] arrrate 0.5
par Aloha.host[231] packet_size 1B
attr unit B
par Aloha.host[231] x 115.446m
attr unit m
par Aloha.host[231] y 199.604m
attr unit m
par Aloha.host[231] txrate 1000Bps
attr unit Bps
par Aloha.host[232] typename "\"Host\""
par Aloha.host[232] arrrate 0.5
par Aloha.host[232] packet_size 1B
attr unit B
par Aloha.host[232] x 55.8907m
attr unit m
par Aloha.host[232] y 167.175m
attr unit m
par Aloha.host[232] txrate 1000Bps
attr unit Bps
par Aloha.host[233] typename "\"Host\""
par Aloha.host[233] arrrate 0.5
par Aloha.host[233] packet_size 1B
attr unit B
par Aloha.host[233] x 24.5578m
attr unit m
par Aloha.host[233] y 105.814m
attr unit m
par Aloha.host[233] txrate 1000Bps
attr unit Bps
par Aloha.host[234] typename "\"Host\""
par Aloha.host[234] arrrate 0.5
par Aloha.host[234] packet_size 1B
attr unit B
par Aloha.host[234] x 46.371m
attr unit m
par Aloha.host[234] y 82.6082m
attr unit m
par Aloha.host[234] txrate 1000Bps
attr unit Bps
par Aloha.host[235] typename "\"Host\""
par Aloha.host[235] arrrate 0.5
par Aloha.host[235] packet_size 1B
attr unit B
par Aloha.host[235] x 24.9985m
attr unit m
par Aloha.host[235] y 12.5134m
attr unit m
par Aloha.host[235] txrate 1000Bps
attr unit Bps
par Aloha.host[236] typename "\"Host\""
par Aloha.host[236] arrrate 0.5
par Aloha.host[236] packet_size 1B
attr unit B
par Aloha.host[236] x 46.7561m
attr unit m
par Aloha.host[236] y 39.2049m
attr unit m
par Aloha.host[236] txrate 1000Bps
attr unit Bps
par Aloha.host[237] typename "\"Host\""
par Aloha.host[237] arrrate 0.5
par Aloha.host[237] packet_size 1B
attr unit B
par Aloha.host[237] x 76.716m
attr unit m
par Aloha.host[237] y 90.7658m
attr unit m
par Aloha.host[237] txrate 1000Bps
attr unit Bps
par Aloha.host[238] typename "\"Host\""
par Aloha.host[238] arrrate 0.5
par Aloha.host[238] packet_size 1B
attr unit B
par Aloha.host[238] x 8.57971m
attr unit m
par Aloha.host[238] y 69.9462m
attr unit m
par Aloha.host[238] txrate 1000Bps
attr unit Bps
par Aloha.host[239] typename "\"Host\""
par Aloha.host[239] arrrate 0.5
par Aloha.host[239] packet_size 1B
attr unit B
par Aloha.host[239] x 167.742m
attr unit m
par Aloha.host[239] y 36.704m
attr unit m
par Aloha.host[239] txrate 1000Bps
attr unit Bps
par Aloha.host[240] typename "\"Host\""
par Aloha.host[240] arrrate 0.5
par Aloha.host[240] packet_size 1B
attr unit B
par Aloha.host[240] x 80.7621m
attr unit m
par Aloha.host[240] y 173.885m
attr unit m
par Aloha.host[240] txrate 1000Bps
attr unit Bps
par Aloha.host[241] typename "\"Host\""
par Aloha.host[241] arrrate 0.5
par Aloha.host[241] packet_size 1B
attr unit B
par Aloha.host[241] x 113.474m
attr unit m
par Aloha.host[241] y 70.4816m
attr unit m
par Aloha.host[241] txrate 1000Bps
attr unit Bps
par Aloha.host[242] typename "\"Host\""
par Aloha.host[242] arrrate 0.5
par Aloha.host[242] packet_size 1B
attr unit B
par Aloha.host[242] x 127.227m
attr unit m
par Aloha.host[242] y 33.0324m
attr unit m
par Aloha.host[242] txrate 1000Bps
attr unit Bps
par Aloha.host[243] typename "\"Host\""
par Aloha.host[243] arrrate 0.5
par Aloha.host[243] packet_size 1B
attr unit B
par Aloha.host[243] x 26.5684m
attr unit m
par Aloha.host[243] y 58.168m
attr unit m
par Aloha.host[243] txrate 1000Bps
attr unit Bps
par Aloha.host[244] typename "\"Host\""
par Aloha.host[244] arrrate 0.5
par Aloha.host[244] packet_size 1B
attr unit B
par Aloha.host[244] x 16.5415m
attr unit m
par Aloha.host[244] y 149.166m
attr unit m
par Aloha.host[244] txrate 1000Bps
attr unit Bps
par Aloha.host[245] typename "\"Host\""
par Aloha.host[245] arrrate 0.5
par Aloha.host[245] packet_size 1B
attr unit B
par Aloha.host[245] x 31.3064m
attr unit m
par Aloha.host[245] y 190.334m
attr unit m
par Aloha.host[245] txrate 1000Bps
attr unit Bps
par Aloha.host[246] typename "\"Host\""
par Aloha.host[246] arrrate 0.5
par Aloha.host[246] packet_size 1B
attr unit B
par Aloha.host[246] x 197.245m
attr unit m
par Aloha.host[246] y 132.558m
attr unit m
par Aloha.host[246] txrate 1000Bps
attr unit Bps
par Aloha.host[247] typename "\"Host\""
par Aloha.host[247] arrrate 0.5
par Aloha.host[247] packet_size 1B
attr unit B
par Aloha.host[247] x 20.903m
attr unit m
par Aloha.host[247] y 64.0729m
attr unit m
par Aloha.host[247] txrate 1000Bps
attr unit Bps
par Aloha.host[248] typename "\"Host\""
par Aloha.host[248] arrrate 0.5
par Aloha.host[248] packet_size 1B
attr unit B
par Aloha.host[248] x 84.5312m
attr unit m
par Aloha.host[248] y 100.972m
attr unit m
par Aloha.host[248] txrate 1000Bps
attr unit Bps
par Aloha.host[249] typename "\"Host\""
par Aloha.host[249] arrrate 0.5
par Aloha.host[249] packet_size 1B
attr unit B
par Aloha.host[249] x 175.012m
attr unit m
par Aloha.host[249] y 18.1349m
attr unit m
par Aloha.host[249] txrate 1000Bps
attr unit Bps
par Aloha.host[250] typename "\"Host\""
par Aloha.host[250] arrrate 0.5
par Aloha.host[250] packet_size 1B
attr unit B
par Aloha.host[250] x 116.855m
attr unit m
par Aloha.host[250] y 126.458m
attr unit m
par Aloha.host[250] txrate 1000Bps
attr unit Bps
par Aloha.host[251] typename "\"Host\""
par Aloha.host[251] arrrate 0.5
par Aloha.host[251] packet_size 1B
attr unit B
par Aloha.host[251] x 3.50673m
attr unit m
par Aloha.host[251] y 107.004m
attr unit m
par Aloha.host[251] txrate 1000Bps
attr unit Bps
par Aloha.host[252] typename "\"Host\""
par Aloha.host[252] arrrate 0.5
par Aloha.host[252] packet_size 1B
attr unit B
par Aloha.host[252] x 177.741m
attr unit m
par Aloha.host[252] y 58.8886m
attr unit m
par Aloha.host[252] txrate 1000Bps
attr unit Bps
par Aloha.host[253] typename "\"Host\""
par Aloha.host[253] arrrate 0.5
par Aloha.host[253] packet_size 1B
attr unit B
par Aloha.host[253] x 76.8295m
attr unit m
par Aloha.host[253] y 114.657m
attr unit m
par Aloha.host[253] txrate 1000Bps
attr unit Bps
par Aloha.host[254] typename "\"Host\""
par Aloha.host[254] arrrate 0.5
par Aloha.host[254] packet_size 1B
attr unit B
par Aloha.host[254] x 33.546m
attr unit m
par Aloha.host[254] y 80.3398m
attr unit m
par Aloha.host[254] txrate 1000Bps
attr unit Bps
par Aloha.host[255] typename "\"Host\""
par Aloha.host[255] arrrate 0.5
par Aloha.host[255] packet_size 1B
attr unit B
par Aloha.host[255] x 67.436m
attr unit m
par Aloha.host[255] y 159.619m
attr unit m
par Aloha.host[255] txrate 1000Bps
attr unit Bps
par Aloha.host[256] typename "\"Host\""
par Aloha.host[256] arrrate 0.5
par Aloha.host[256] packet_size 1B
attr unit B
par Aloha.host[256] x 118.83m
attr unit m
par Aloha.host[256] y 71.1243m
attr unit m
par Aloha.host[256] txrate 1000Bps
attr unit Bps
par Aloha.host[257] typename "\"Host\""
par Aloha.host[257] arrrate 0.5
par Aloha.host[257] packet_size 1B
attr unit B
par Aloha.host[257] x 7.54904m
attr unit m
par Aloha.host[257] y 61.481m
attr unit m
par Aloha.host[257] txrate 1000Bps
attr unit Bps
par Aloha.host[258] typename "\"Host\""
par Aloha.host[258] arrrate 0.5
par Aloha.host[258] packet_size 1B
attr unit B
par Aloha.host[258] x 128.662m
attr unit m
par Aloha.host[258] y 26.7744m
attr unit m
par Aloha.host[258] txrate 1000Bps
attr unit Bps
par Aloha.host[259] typename "\"Host\""
par Aloha.host[259] arrrate 0.5
par Aloha.host[259] packet_size 1B
attr unit B
par Aloha.host[259] x 122.021m
attr unit m
par Aloha.host[259] y 177.802m
attr unit m
par Aloha.host[259] txrate 1000Bps
attr unit Bps
par Aloha.host[260] typename "\"Host\""
par Aloha.host[260] arrrate 0.5
par Aloha.host[260] packet_size 1B
attr unit B
par Aloha.host[260] x 45.7588m
attr unit m
par Aloha.host[260] y 81.3512m
attr unit m
par Aloha.host[260] txrate 1000Bps
attr unit Bps
par Aloha.host[261] typename "\"Host\""
par Aloha.host[261] arrrate 0.5
par Aloha.host[261] packet_size 1B
attr unit B
par Aloha.host[261] x 85.2036m
attr unit m
par Aloha.host[261] y 173.019m
attr unit m
par Aloha.host[261] txrate 1000Bps
attr unit Bps
par Aloha.host[262] typename "\"Host\""
par Aloha.host[262] arrrate 0.5
par Aloha.host[262] packet_size 1B
attr unit B
par Aloha.host[262] x 38.703m
attr unit m
par Aloha.host[262] y 146.043m
attr unit m
par Aloha.host[262] txrate 1000Bps
attr unit Bps
par Aloha.host[263] typename "\"Host\""
par Aloha.host[263] arrrate 0.5
par Aloha.host[263] packet_size 1B
attr unit B
par Aloha.host[263] x 4.26597m
attr unit m
par Aloha.host[263] y 119.301m
attr unit m
par Aloha.host[263] txrate 1000Bps
attr unit Bps
par Aloha.host[264] typename "\"Host\""
par Aloha.host[264] arrrate 0.5
par Aloha.host[264] packet_size 1B
attr unit B
par Aloha.host[264] x 116.784m
attr unit m
par Aloha.host[264] y 163.033m
attr unit m
par Aloha.host[264] txrate 1000Bps
attr unit Bps
par Aloha.host[265] typename "\"Host\""
par Aloha.host[265] arrrate 0.5
par Aloha.host[265] packet_size 1B
attr unit B
par Aloha.host[265] x 89.0714m
attr unit m
par Aloha.host[265] y 133.051m
attr unit m
par Aloha.host[265] txrate 1000Bps
attr unit Bps
par Aloha.host[266] typename "\"Host\""
par Aloha.host[266] arrrate 0.5
par Aloha.host[266] packet_size 1B
attr unit B
par Aloha.host[266] x 168.411m
attr unit m
par Aloha.host[266] y 29.4991m
attr unit m
par Aloha.host[266] txrate 1000Bps
attr unit Bps
par Aloha.host[267] typename "\"Host\""
par Aloha.host[267] arrrate 0.5
par Aloha.host[267] packet_size 1B
attr unit B
par Aloha.host[267] x 39.8111m
attr unit m
par Aloha.host[267] y 124.114m
attr unit m
par Aloha.host[267] txrate 1000Bps
attr unit Bps
par Aloha.host[268] typename "\"Host\""
par Aloha.host[268] arrrate 0.5
par Aloha.host[268] packet_size 1B
attr unit B
par Aloha.host[268] x 88.1198m
attr unit m
par Aloha.host[268] y 13.7939m
attr unit m
par Aloha.host[268] txrate 1000Bps
attr unit Bps
par Aloha.host[269] typename "\"Host\""
par Aloha.host[269] arrrate 0.5
par Aloha.host[269] packet_size 1B
attr unit B
par Aloha.host[269] x 133.491m
attr unit m
par Aloha.host[269] y 179.845m
attr unit m
par Aloha.host[269] txrate 1000Bps
attr unit Bps
par Aloha.host[270] typename "\"Host\""
par Aloha.host[270] arrrate 0.5
par Aloha.host[270] packet_size 1B
attr unit B
par Aloha.host[270] x 13.6669m
attr unit m
par Aloha.host[270] y 156.922m
attr unit m
par Aloha.host[270] txrate 1000Bps
attr unit Bps
par Aloha.host[271] typename "\"Host\""
par Aloha.host[271] arrrate 0.5
par Aloha.host[271] packet_size 1B
attr unit B
par Aloha.host[271] x 71.0673m
attr unit m
par Aloha.host[271] y 0.774528m
attr unit m
par Aloha.host[271] txrate 1000Bps
attr unit Bps
par Aloha.host[272] typename "\"Host\""
par Aloha.host[272] arrrate 0.5
par Aloha.host[272] packet_size 1B
attr unit B
par Aloha.host[272] x 137.207m
attr unit m
par Aloha.host[272] y 186.709m
attr unit m
par Aloha.host[272] txrate 1000Bps
attr unit Bps
par Aloha.host[273] typename "\"Host\""
par Aloha.host[273] arrrate 0.5
par Aloha.host[273] packet_size 1B
attr unit B
par Aloha.host[273] x 49.0144m
attr unit m
par Aloha.host[273] y 43.5832m
attr unit m
par Aloha.host[273] txrate 1000Bps
attr unit Bps
par Aloha.host[274] typename "\"Host\""
par Aloha.host[274] arrrate 0.5
par Aloha.host[274] packet_size 1B
attr unit B
par Aloha.host[274] x 72.7955m
attr unit m
par Aloha.host[274] y 52.9831m
attr unit m
par Aloha.host[274] txrate 1000Bps
attr unit Bps
par Aloha.host[275] typename "\"Host\""
par Aloha.host[275] arrrate 0.5
par Aloha.host[275] packet_size 1B
attr unit B
par Aloha.host[275] x 115.473m
attr unit m
par Aloha.host[275] y 176.28m
attr unit m
par Aloha.host[275] txrate 1000Bps
attr unit Bps
par Aloha.host[276] typename "\"Host\""
par Aloha.host[276] arrrate 0.5
par Aloha.host[276] packet_size 1B
attr unit B
par Aloha.host[276] x 81.8871m
attr unit m
par Aloha.host[276] y 191.552m
attr unit m
par Aloha.host[276] txrate 1000Bps
attr unit Bps
par Aloha.host[277] typename "\"Host\""
par Aloha.host[277] arrrate 0.5
par Aloha.host[277] packet_size 1B
attr unit B
par Aloha.host[277] x 175.356m
attr unit m
par Aloha.host[277] y 48.2058m
attr unit m
par Aloha.host[277] txrate 1000Bps
attr unit Bps
par Aloha.host[278] typename "\"Host\""
par Aloha.host[278] arrrate 0.5
par Aloha.host[278] packet_size 1B
attr unit B
par Aloha.host[278] x 171.976m
attr unit m
par Aloha.host[278] y 98.1872m
attr unit m
par Aloha.host[278] txrate 1000Bps
attr unit Bps
par Aloha.host[279] typename "\"Host\""
par Aloha.host[279] arrrate 0.5
par Aloha.host[279] packet_size 1B
attr unit B
par Aloha.host[279] x 166.795m
attr unit m
par Aloha.host[279] y 148.128m
attr unit m
par Aloha.host[279] txrate 1000Bps
attr unit Bps
par Aloha.host[280] typename "\"Host\""
par Aloha.host[280] arrrate 0.5
par Aloha.host[280] packet_size 1B
attr unit B
par Aloha.host[280] x 85.2542m
attr unit m
par Aloha.host[280] y 101m
attr unit m
par Aloha.host[280] txrate 1000Bps
attr unit Bps
par Aloha.host[281] typename "\"Host\""
par Aloha.host[281] arrrate 0.5
par Aloha.host[281] packet_size 1B
attr unit B
par Aloha.host[281] x 38.026m
attr unit m
par Aloha.host[281] y 6.61189m
attr unit m
par Aloha.host[281] txrate 1000Bps
attr unit Bps
par Aloha.host[282] typename "\"Host\""
par Aloha.host[282] arrrate 0.5
par Aloha.host[282] packet_size 1B
attr unit B
par Aloha.host[282] x 127.773m
attr unit m
par Aloha.host[282] y 41.3926m
attr unit m
par Aloha.host[282] txrate 1000Bps
attr unit Bps
par Aloha.host[283] typename "\"Host\""
par Aloha.host[283] arrrate 0.5
par Aloha.host[283] packet_size 1B
attr unit B
par Aloha.host[283] x 85.631m
attr unit m
par Aloha.host[283] y 168.211m
attr unit m
par Aloha.host[283] txrate 1000Bps
attr unit Bps
par Aloha.host[284] typename "\"Host\""
par Aloha.host[284] arrrate 0.5
par Aloha.host[284] packet_size 1B
attr unit B
par Aloha.host[284] x 101.161m
attr unit m
par Aloha.host[284] y 169.239m
attr unit m
par Aloha.host[284] txrate 1000Bps
attr unit Bps
par Aloha.host[285] typename "\"Host\""
par Aloha.host[285] arrrate 0.5
par Aloha.host[285] packet_size 1B
attr unit B
par Aloha.host[285] x 130.21m
attr unit m
par Aloha.host[285] y 194.996m
attr unit m
par Aloha.host[285] txrate 1000Bps
attr unit Bps
par Aloha.host[286] typename "\"Host\""
par Aloha.host[286] arrrate 0.5
par Aloha.host[286] packet_size 1B
attr unit B
par Aloha.host[286] x 187.988m
attr unit m
par Aloha.host[286] y 43.6331m
attr unit m
par Aloha.host[286] txrate 1000Bps
attr unit Bps
par Aloha.host[287] typename "\"Host\""
par Aloha.host[287] arrrate 0.5
par Aloha.host[287] packet_size 1B
attr unit B
par Aloha.host[287] x 161.65m
attr unit m
par Aloha.host[287] y 193.086m
attr unit m
par Aloha.host[287] txrate 1000Bps
attr unit Bps
par Aloha.host[288] typename "\"Host\""
par Aloha.host[288] arrrate 0.5
par Aloha.host[288] packet_size 1B
attr unit B
par Aloha.host[288] x 24.6433m
attr unit m
par Aloha.host[288] y 113.296m
attr unit m
par Aloha.host[288] txrate 1000Bps
attr unit Bps
par Aloha.host[289] typename "\"Host\""
par Aloha.host[289] arrrate 0.5
par Aloha.host[289] packet_size 1B
attr unit B
par Aloha.host[289] x 181.492m
attr unit m
par Aloha.host[289] y 188.096m
attr unit m
par Aloha.host[289] txrate 1000Bps
attr unit Bps
par Aloha.host[290] typename "\"Host\""
par Aloha.host[290] arrrate 0.5
par Aloha.host[290] packet_size 1B
attr unit B
par Aloha.host[290] x 135.413m
attr unit m
par Aloha.host[290] y 19.8399m
attr unit m
par Aloha.host[290] txrate 1000Bps
attr unit Bps
par Aloha.host[291] typename "\"Host\""
par Aloha.host[291] arrrate 0.5
par Aloha.host[291] packet_size 1B
attr unit B
par Aloha.host[291] x 63.885m
attr unit m
par Aloha.host[291] y 192.321m
attr unit m
par Aloha.host[291] txrate 1000Bps
attr unit Bps
par Aloha.host[292] typename "\"Host\""
par Aloha.host[292] arrrate 0.5
par Aloha.host[292] packet_size 1B
attr unit B
par Aloha.host[292] x 145.999m
attr unit m
par Aloha.host[292] y 75.8557m
attr unit m
par Aloha.host[292] txrate 1000Bps
attr unit Bps
par Aloha.host[293] typename "\"Host\""
par Aloha.host[293] arrrate 0.5
par Aloha.host[293] packet_size 1B
attr unit B
par Aloha.host[293] x 94.9928m
attr unit m
par Aloha.host[293] y 22.6714m
attr unit m
par Aloha.host[293] txrate 1000Bps
attr unit Bps
par Aloha.host[294] typename "\"Host\""
par Aloha.host[294] arrrate 0.5
par Aloha.host[294] packet_size 1B
attr unit B
par Aloha.host[294] x 112.207m
attr unit m
par Aloha.host[294] y 9.86496m
attr unit m
par Aloha.host[294] txrate 1000Bps
attr unit Bps
par Aloha.host[295] typename "\"Host\""
par Aloha.host[295] arrrate 0.5
par Aloha.host[295] packet_size 1B
attr unit B
par Aloha.host[295] x 114.365m
attr unit m
par Aloha.host[295] y 39.0222m
attr unit m
par Aloha.host[295] txrate 1000Bps
attr unit Bps
par Aloha.host[296] typename "\"Host\""
par Aloha.host[296] arrrate 0.5
par Aloha.host[296] packet_size 1B
attr unit B
par Aloha.host[296] x 30.2978m
attr unit m
par Aloha.host[296] y 170.013m
attr unit m
par Aloha.host[296] txrate 1000Bps
attr unit Bps
par Aloha.host[297] typename "\"Host\""
par Aloha.host[297] arrrate 0.5
par Aloha.host[297] packet_size 1B
attr unit B
par Aloha.host[297] x 72.3964m
attr unit m
par Aloha.host[297] y 98.4632m
attr unit m
par Aloha.host[297] txrate 1000Bps
attr unit Bps
par Aloha.host[298] typename "\"Host\""
par Aloha.host[298] arrrate 0.5
par Aloha.host[298] packet_size 1B
attr unit B
par Aloha.host[298] x 87.1469m
attr unit m
par Aloha.host[298] y 196.088m
attr unit m
par Aloha.host[298] txrate 1000Bps
attr unit Bps
par Aloha.host[299] typename "\"Host\""
par Aloha.host[299] arrrate 0.5
par Aloha.host[299] packet_size 1B
attr unit B
par Aloha.host[299] x 11.545m
attr unit m
par Aloha.host[299] y 131.807m
attr unit m
par Aloha.host[299] txrate 1000Bps
attr unit Bps
par Aloha.host[300] typename "\"Host\""
par Aloha.host[300] arrrate 0.5
par Aloha.host[300] packet_size 1B
attr unit B
par Aloha.host[300] x 144.747m
attr unit m
par Aloha.host[300] y 54.4889m
attr unit m
par Aloha.host[300] txrate 1000Bps
attr unit Bps
par Aloha.host[301] typename "\"Host\""
par Aloha.host[301] arrrate 0.5
par Aloha.host[301] packet_size 1B
attr unit B
par Aloha.host[301] x 65.361m
attr unit m
par Aloha.host[301] y 129.09m
attr unit m
par Aloha.host[301] txrate 1000Bps
attr unit Bps
par Aloha.host[302] typename "\"Host\""
par Aloha.host[302] arrrate 0.5
par Aloha.host[302] packet_size 1B
attr unit B
par Aloha.host[302] x 95.3706m
attr unit m
par Aloha.host[302] y 48.4291m
attr unit m
par Aloha.host[302] txrate 1000Bps
attr unit Bps
par Aloha.host[303] typename "\"Host\""
par Aloha.host[303] arrrate 0.5
par Aloha.host[303] packet_size 1B
attr unit B
par Aloha.host[303] x 189.612m
attr unit m
par Aloha.host[303] y 128.588m
attr unit m
par Aloha.host[303] txrate 1000Bps
attr unit Bps
par Aloha.host[304] typename "\"Host\""
par Aloha.host[304] arrrate 0.5
par Aloha.host[304] packet_size 1B
attr unit B
par Aloha.host[304] x 173.594m
attr unit m
par Aloha.host[304] y 22.3142m
attr unit m
par Aloha.host[304] txrate 1000Bps
attr unit Bps
par Aloha.host[305] typename "\"Host\""
par Aloha.host[305] arrrate 0.5
par Aloha.host[305] packet_size 1B
attr unit B
par Aloha.host[305] x 54.6192m
attr unit m
par Aloha.host[305] y 70.7704m
attr unit m
par Aloha.host[305] txrate 1000Bps
attr unit Bps
par Aloha.host[306] typename "\"Host\""
par Aloha.host[306] arrrate 0.5
par Aloha.host[306] packet_size 1B
attr unit B
par Aloha.host[306] x 80.0543m
attr unit m
par Aloha.host[306] y 106.185m
attr unit m
par Aloha.host[306] txrate 1000Bps
attr unit Bps
par Aloha.host[307] typename "\"Host\""
par Aloha.host[307] arrrate 0.5
par Aloha.host[307] packet_size 1B
attr unit B
par Aloha.host[307] x 114.247m
attr unit m
par Aloha.host[307] y 0.271174m
attr unit m
par Aloha.host[307] txrate 1000Bps
attr unit Bps
par Aloha.host[308] typename "\"Host\""
par Aloha.host[308] arrrate 0.5
par Aloha.host[308] packet_size 1B
attr unit B
par Aloha.host[308] x 23.8964m
attr unit m
par Aloha.host[308] y 107.89m
attr unit m
par Aloha.host[308] txrate 1000Bps
attr unit Bps
par Aloha.host[309] typename "\"Host\""
par Aloha.host[309] arrrate 0.5
par Aloha.host[309] packet_size 1B
attr unit B
par Aloha.host[309] x 159.237m
attr unit m
par Aloha.host[309] y 71.6466m
attr unit m
par Aloha.host[309] txrate 1000Bps
attr unit Bps
par Aloha.host[310] typename "\"Host\""
par Aloha.host[310] arrrate 0.5
par Aloha.host[310] packet_size 1B
attr unit B
par Aloha.host[310] x 64.7504m
attr unit m
par Aloha.host[310] y 103.562m
attr unit m
par Aloha.host[310] txrate 1000Bps
attr unit Bps
par Aloha.host[311] typename "\"Host\""
par Aloha.host[311] arrrate 0.5
par Aloha.host[311] packet_size 1B
attr unit B
par Aloha.host[311] x 23.1257m
attr unit m
par Aloha.host[311] y 42.7426m
attr unit m
par Aloha.host[311] txrate 1000Bps
attr unit Bps
par Aloha.host[312] typename "\"Host\""
par Aloha.host[312] arrrate 0.5
par Aloha.host[312] packet_size 1B
attr unit B
par Aloha.host[312] x 141.44m
attr unit m
par Aloha.host[312] y 181.764m
attr unit m
par Aloha.host[312] txrate 1000Bps
attr unit Bps
par Aloha.host[313] typename "\"Host\""
par Aloha.host[313] arrrate 0.5
par Aloha.host[313] packet_size 1B
attr unit B
par Aloha.host[313] x 102.982m
attr unit m
par Aloha.host[313] y 168.846m
attr unit m
par Aloha.host[313] txrate 1000Bps
attr unit Bps
par Aloha.host[314] typename "\"Host\""
par Aloha.host[314] arrrate 0.5
par Aloha.host[314] packet_size 1B
attr unit B
par Aloha.host[314] x 5.42008m
attr unit m
par Aloha.host[314] y 48.9599m
attr unit m
par Aloha.host[314] txrate 1000Bps
attr unit Bps
par Aloha.host[315] typename "\"Host\""
[...]
par Aloha.host[922] packet_size 1B
attr unit B
par Aloha.host[922] x 162.419m
attr unit m
par Aloha.host[922] y 104.176m
attr unit m
par Aloha.host[922] txrate 1000Bps
attr unit Bps
par Aloha.host[923] typename "\"Host\""
par Aloha.host[923] arrrate 0.5
par Aloha.host[923] packet_size 1B
attr unit B
par Aloha.host[923] x 161.339m
attr unit m
par Aloha.host[923] y 37.6781m
attr unit m
par Aloha.host[923] txrate 1000Bps
attr unit Bps
par Aloha.host[924] typename "\"Host\""
par Aloha.host[924] arrrate 0.5
par Aloha.host[924] packet_size 1B
attr unit B
par Aloha.host[924] x 185.07m
attr unit m
par Aloha.host[924] y 87.4899m
attr unit m
par Aloha.host[924] txrate 1000Bps
attr unit Bps
par Aloha.host[925] typename "\"Host\""
par Aloha.host[925] arrrate 0.5
par Aloha.host[925] packet_size 1B
attr unit B
par Aloha.host[925] x 125.128m
attr unit m
par Aloha.host[925] y 52.7577m
attr unit m
par Aloha.host[925] txrate 1000Bps
attr unit Bps
par Aloha.host[926] typename "\"Host\""
par Aloha.host[926] arrrate 0.5
par Aloha.host[926] packet_size 1B
attr unit B
par Aloha.host[926] x 143.641m
attr unit m
par Aloha.host[926] y 96.2162m
attr unit m
par Aloha.host[926] txrate 1000Bps
attr unit Bps
par Aloha.host[927] typename "\"Host\""
par Aloha.host[927] arrrate 0.5
par Aloha.host[927] packet_size 1B
attr unit B
par Aloha.host[927] x 19.7505m
attr unit m
par Aloha.host[927] y 83.3903m
attr unit m
par Aloha.host[927] txrate 1000Bps
attr unit Bps
par Aloha.host[928] typename "\"Host\""
par Aloha.host[928] arrrate 0.5
par Aloha.host[928] packet_size 1B
attr unit B
par Aloha.host[928] x 60.9397m
attr unit m
par Aloha.host[928] y 55.8363m
attr unit m
par Aloha.host[928] txrate 1000Bps
attr unit Bps
par Aloha.host[929] typename "\"Host\""
par Aloha.host[929] arrrate 0.5
par Aloha.host[929] packet_size 1B
attr unit B
par Aloha.host[929] x 22.1556m
attr unit m
par Aloha.host[929] y 103.699m
attr unit m
par Aloha.host[929] txrate 1000Bps
attr unit Bps
par Aloha.host[930] typename "\"Host\""
par Aloha.host[930] arrrate 0.5
par Aloha.host[930] packet_size 1B
attr unit B
par Aloha.host[930] x 119.525m
attr unit m
par Aloha.host[930] y 89.4852m
attr unit m
par Aloha.host[930] txrate 1000Bps
attr unit Bps
par Aloha.host[931] typename "\"Host\""
par Aloha.host[931] arrrate 0.5
par Aloha.host[931] packet_size 1B
attr unit B
par Aloha.host[931] x 90.3739m
attr unit m
par Aloha.host[931] y 72.9104m
attr unit m
par Aloha.host[931] txrate 1000Bps
attr unit Bps
par Aloha.host[932] typename "\"Host\""
par Aloha.host[932] arrrate 0.5
par Aloha.host[932] packet_size 1B
attr unit B
par Aloha.host[932] x 38.8299m
attr unit m
par Aloha.host[932] y 195.611m
attr unit m
par Aloha.host[932] txrate 1000Bps
attr unit Bps
par Aloha.host[933] typename "\"Host\""
par Aloha.host[933] arrrate 0.5
par Aloha.host[933] packet_size 1B
attr unit B
par Aloha.host[933] x 140.437m
attr unit m
par Aloha.host[933] y 57.2796m
attr unit m
par Aloha.host[933] txrate 1000Bps
attr unit Bps
par Aloha.host[934] typename "\"Host\""
par Aloha.host[934] arrrate 0.5
par Aloha.host[934] packet_size 1B
attr unit B
par Aloha.host[934] x 166.239m
attr unit m
par Aloha.host[934] y 152.034m
attr unit m
par Aloha.host[934] txrate 1000Bps
attr unit Bps
par Aloha.host[935] typename "\"Host\""
par Aloha.host[935] arrrate 0.5
par Aloha.host[935] packet_size 1B
attr unit B
par Aloha.host[935] x 33.3392m
attr unit m
par Aloha.host[935] y 14.6691m
attr unit m
par Aloha.host[935] txrate 1000Bps
attr unit Bps
par Aloha.host[936] typename "\"Host\""
par Aloha.host[936] arrrate 0.5
par Aloha.host[936] packet_size 1B
attr unit B
par Aloha.host[936] x 172.174m
attr unit m
par Aloha.host[936] y 49.5438m
attr unit m
par Aloha.host[936] txrate 1000Bps
attr unit Bps
par Aloha.host[937] typename "\"Host\""
par Aloha.host[937] arrrate 0.5
par Aloha.host[937] packet_size 1B
attr unit B
par Aloha.host[937] x 58.852m
attr unit m
par Aloha.host[937] y 9.22702m
attr unit m
par Aloha.host[937] txrate 1000Bps
attr unit Bps
par Aloha.host[938] typename "\"Host\""
par Aloha.host[938] arrrate 0.5
par Aloha.host[938] packet_size 1B
attr unit B
par Aloha.host[938] x 163.616m
attr unit m
par Aloha.host[938] y 124.409m
attr unit m
par Aloha.host[938] txrate 1000Bps
attr unit Bps
par Aloha.host[939] typename "\"Host\""
par Aloha.host[939] arrrate 0.5
par Aloha.host[939] packet_size 1B
attr unit B
par Aloha.host[939] x 125m
attr unit m
par Aloha.host[939] y 73.4021m
attr unit m
par Aloha.host[939] txrate 1000Bps
attr unit Bps
par Aloha.host[940] typename "\"Host\""
par Aloha.host[940] arrrate 0.5
par Aloha.host[940] packet_size 1B
attr unit B
par Aloha.host[940] x 103.263m
attr unit m
par Aloha.host[940] y 127.817m
attr unit m
par Aloha.host[940] txrate 1000Bps
attr unit Bps
par Aloha.host[941] typename "\"Host\""
par Aloha.host[941] arrrate 0.5
par Aloha.host[941] packet_size 1B
attr unit B
par Aloha.host[941] x 88.0409m
attr unit m
par Aloha.host[941] y 91.8652m
attr unit m
par Aloha.host[941] txrate 1000Bps
attr unit Bps
par Aloha.host[942] typename "\"Host\""
par Aloha.host[942] arrrate 0.5
par Aloha.host[942] packet_size 1B
attr unit B
par Aloha.host[942] x 174.256m
attr unit m
par Aloha.host[942] y 15.2957m
attr unit m
par Aloha.host[942] txrate 1000Bps
attr unit Bps
par Aloha.host[943] typename "\"Host\""
par Aloha.host[943] arrrate 0.5
par Aloha.host[943] packet_size 1B
attr unit B
par Aloha.host[943] x 118.133m
attr unit m
par Aloha.host[943] y 25.0609m
attr unit m
par Aloha.host[943] txrate 1000Bps
attr unit Bps
par Aloha.host[944] typename "\"Host\""
par Aloha.host[944] arrrate 0.5
par Aloha.host[944] packet_size 1B
attr unit B
par Aloha.host[944] x 158.888m
attr unit m
par Aloha.host[944] y 134.305m
attr unit m
par Aloha.host[944] txrate 1000Bps
attr unit Bps
par Aloha.host[945] typename "\"Host\""
par Aloha.host[945] arrrate 0.5
par Aloha.host[945] packet_size 1B
attr unit B
par Aloha.host[945] x 192.726m
attr unit m
par Aloha.host[945] y 80.8502m
attr unit m
par Aloha.host[945] txrate 1000Bps
attr unit Bps
par Aloha.host[946] typename "\"Host\""
par Aloha.host[946] arrrate 0.5
par Aloha.host[946] packet_size 1B
attr unit B
par Aloha.host[946] x 34.9773m
attr unit m
par Aloha.host[946] y 140.647m
attr unit m
par Aloha.host[946] txrate 1000Bps
attr unit Bps
par Aloha.host[947] typename "\"Host\""
par Aloha.host[947] arrrate 0.5
par Aloha.host[947] packet_size 1B
attr unit B
par Aloha.host[947] x 50.4884m
attr unit m
par Aloha.host[947] y 122.166m
attr unit m
par Aloha.host[947] txrate 1000Bps
attr unit Bps
par Aloha.host[948] typename "\"Host\""
par Aloha.host[948] arrrate 0.5
par Aloha.host[948] packet_size 1B
attr unit B
par Aloha.host[948] x 127.464m
attr unit m
par Aloha.host[948] y 155.209m
attr unit m
par Aloha.host[948] txrate 1000Bps
attr unit Bps
par Aloha.host[949] typename "\"Host\""
par Aloha.host[949] arrrate 0.5
par Aloha.host[949] packet_size 1B
attr unit B
par Aloha.host[949] x 36.277m
attr unit m
par Aloha.host[949] y 166.761m
attr unit m
par Aloha.host[949] txrate 1000Bps
attr unit Bps
par Aloha.host[950] typename "\"Host\""
par Aloha.host[950] arrrate 0.5
par Aloha.host[950] packet_size 1B
attr unit B
par Aloha.host[950] x 29.6866m
attr unit m
par Aloha.host[950] y 128.158m
attr unit m
par Aloha.host[950] txrate 1000Bps
attr unit Bps
par Aloha.host[951] typename "\"Host\""
par Aloha.host[951] arrrate 0.5
par Aloha.host[951] packet_size 1B
attr unit B
par Aloha.host[951] x 189.042m
attr unit m
par Aloha.host[951] y 125.536m
attr unit m
par Aloha.host[951] txrate 1000Bps
attr unit Bps
par Aloha.host[952] typename "\"Host\""
par Aloha.host[952] arrrate 0.5
par Aloha.host[952] packet_size 1B
attr unit B
par Aloha.host[952] x 178.106m
attr unit m
par Aloha.host[952] y 108.26m
attr unit m
par Aloha.host[952] txrate 1000Bps
attr unit Bps
par Aloha.host[953] typename "\"Host\""
par Aloha.host[953] arrrate 0.5
par Aloha.host[953] packet_size 1B
attr unit B
par Aloha.host[953] x 176.152m
attr unit m
par Aloha.host[953] y 31.5285m
attr unit m
par Aloha.host[953] txrate 1000Bps
attr unit Bps
par Aloha.host[954] typename "\"Host\""
par Aloha.host[954] arrrate 0.5
par Aloha.host[954] packet_size 1B
attr unit B
par Aloha.host[954] x 50.9265m
attr unit m
par Aloha.host[954] y 110.997m
attr unit m
par Aloha.host[954] txrate 1000Bps
attr unit Bps
par Aloha.host[955] typename "\"Host\""
par Aloha.host[955] arrrate 0.5
par Aloha.host[955] packet_size 1B
attr unit B
par Aloha.host[955] x 105.073m
attr unit m
par Aloha.host[955] y 15.2887m
attr unit m
par Aloha.host[955] txrate 1000Bps
attr unit Bps
par Aloha.host[956] typename "\"Host\""
par Aloha.host[956] arrrate 0.5
par Aloha.host[956] packet_size 1B
attr unit B
par Aloha.host[956] x 97.5239m
attr unit m
par Aloha.host[956] y 42.7364m
attr unit m
par Aloha.host[956] txrate 1000Bps
attr unit Bps
par Aloha.host[957] typename "\"Host\""
par Aloha.host[957] arrrate 0.5
par Aloha.host[957] packet_size 1B
attr unit B
par Aloha.host[957] x 7.26988m
attr unit m
par Aloha.host[957] y 125.561m
attr unit m
par Aloha.host[957] txrate 1000Bps
attr unit Bps
par Aloha.host[958] typename "\"Host\""
par Aloha.host[958] arrrate 0.5
par Aloha.host[958] packet_size 1B
attr unit B
par Aloha.host[958] x 6.81103m
attr unit m
par Aloha.host[958] y 181.262m
attr unit m
par Aloha.host[958] txrate 1000Bps
attr unit Bps
par Aloha.host[959] typename "\"Host\""
par Aloha.host[959] arrrate 0.5
par Aloha.host[959] packet_size 1B
attr unit B
par Aloha.host[959] x 31.339m
attr unit m
par Aloha.host[959] y 97.2229m
attr unit m
par Aloha.host[959] txrate 1000Bps
attr unit Bps
par Aloha.host[960] typename "\"Host\""
par Aloha.host[960] arrrate 0.5
par Aloha.host[960] packet_size 1B
attr unit B
par Aloha.host[960] x 80.0491m
attr unit m
par Aloha.host[960] y 109m
attr unit m
par Aloha.host[960] txrate 1000Bps
attr unit Bps
par Aloha.host[961] typename "\"Host\""
par Aloha.host[961] arrrate 0.5
par Aloha.host[961] packet_size 1B
attr unit B
par Aloha.host[961] x 34.2198m
attr unit m
par Aloha.host[961] y 140.803m
attr unit m
par Aloha.host[961] txrate 1000Bps
attr unit Bps
par Aloha.host[962] typename "\"Host\""
par Aloha.host[962] arrrate 0.5
par Aloha.host[962] packet_size 1B
attr unit B
par Aloha.host[962] x 8.94376m
attr unit m
par Aloha.host[962] y 194.373m
attr unit m
par Aloha.host[962] txrate 1000Bps
attr unit Bps
par Aloha.host[963] typename "\"Host\""
par Aloha.host[963] arrrate 0.5
par Aloha.host[963] packet_size 1B
attr unit B
par Aloha.host[963] x 84.538m
attr unit m
par Aloha.host[963] y 136.434m
attr unit m
par Aloha.host[963] txrate 1000Bps
attr unit Bps
par Aloha.host[964] typename "\"Host\""
par Aloha.host[964] arrrate 0.5
par Aloha.host[964] packet_size 1B
attr unit B
par Aloha.host[964] x 153.991m
attr unit m
par Aloha.host[964] y 148.685m
attr unit m
par Aloha.host[964] txrate 1000Bps
attr unit Bps
par Aloha.host[965] typename "\"Host\""
par Aloha.host[965] arrrate 0.5
par Aloha.host[965] packet_size 1B
attr unit B
par Aloha.host[965] x 6.44497m
attr unit m
par Aloha.host[965] y 125.817m
attr unit m
par Aloha.host[965] txrate 1000Bps
attr unit Bps
par Aloha.host[966] typename "\"Host\""
par Aloha.host[966] arrrate 0.5
par Aloha.host[966] packet_size 1B
attr unit B
par Aloha.host[966] x 122.065m
attr unit m
par Aloha.host[966] y 13.0831m
attr unit m
par Aloha.host[966] txrate 1000Bps
attr unit Bps
par Aloha.host[967] typename "\"Host\""
par Aloha.host[967] arrrate 0.5
par Aloha.host[967] packet_size 1B
attr unit B
par Aloha.host[967] x 69.0996m
attr unit m
par Aloha.host[967] y 128.038m
attr unit m
par Aloha.host[967] txrate 1000Bps
attr unit Bps
par Aloha.host[968] typename "\"Host\""
par Aloha.host[968] arrrate 0.5
par Aloha.host[968] packet_size 1B
attr unit B
par Aloha.host[968] x 194.416m
attr unit m
par Aloha.host[968] y 72.7077m
attr unit m
par Aloha.host[968] txrate 1000Bps
attr unit Bps
par Aloha.host[969] typename "\"Host\""
par Aloha.host[969] arrrate 0.5
par Aloha.host[969] packet_size 1B
attr unit B
par Aloha.host[969] x 148.004m
attr unit m
par Aloha.host[969] y 11.3897m
attr unit m
par Aloha.host[969] txrate 1000Bps
attr unit Bps
par Aloha.host[970] typename "\"Host\""
par Aloha.host[970] arrrate 0.5
par Aloha.host[970] packet_size 1B
attr unit B
par Aloha.host[970] x 177.303m
attr unit m
par Aloha.host[970] y 46.7483m
attr unit m
par Aloha.host[970] txrate 1000Bps
attr unit Bps
par Aloha.host[971] typename "\"Host\""
par Aloha.host[971] arrrate 0.5
par Aloha.host[971] packet_size 1B
attr unit B
par Aloha.host[971] x 155.979m
attr unit m
par Aloha.host[971] y 151.543m
attr unit m
par Aloha.host[971] txrate 1000Bps
attr unit Bps
par Aloha.host[972] typename "\"Host\""
par Aloha.host[972] arrrate 0.5
par Aloha.host[972] packet_size 1B
attr unit B
par Aloha.host[972] x 128.107m
attr unit m
par Aloha.host[972] y 28.215m
attr unit m
par Aloha.host[972] txrate 1000Bps
attr unit Bps
par Aloha.host[973] typename "\"Host\""
par Aloha.host[973] arrrate 0.5
par Aloha.host[973] packet_size 1B
attr unit B
par Aloha.host[973] x 12.7804m
attr unit m
par Aloha.host[973] y 12.6026m
attr unit m
par Aloha.host[973] txrate 1000Bps
attr unit Bps
par Aloha.host[974] typename "\"Host\""
par Aloha.host[974] arrrate 0.5
par Aloha.host[974] packet_size 1B
attr unit B
par Aloha.host[974] x 85.0679m
attr unit m
par Aloha.host[974] y 189.61m
attr unit m
par Aloha.host[974] txrate 1000Bps
attr unit Bps
par Aloha.host[975] typename "\"Host\""
par Aloha.host[975] arrrate 0.5
par Aloha.host[975] packet_size 1B
attr unit B
par Aloha.host[975] x 11.9721m
attr unit m
par Aloha.host[975] y 35.3274m
attr unit m
par Aloha.host[975] txrate 1000Bps
attr unit Bps
par Aloha.host[976] typename "\"Host\""
par Aloha.host[976] arrrate 0.5
par Aloha.host[976] packet_size 1B
attr unit B
par Aloha.host[976] x 188.67m
attr unit m
par Aloha.host[976] y 2.54457m
attr unit m
par Aloha.host[976] txrate 1000Bps
attr unit Bps
par Aloha.host[977] typename "\"Host\""
par Aloha.host[977] arrrate 0.5
par Aloha.host[977] packet_size 1B
attr unit B
par Aloha.host[977] x 121.718m
attr unit m
par Aloha.host[977] y 105.429m
attr unit m
par Aloha.host[977] txrate 1000Bps
attr unit Bps
par Aloha.host[978] typename "\"Host\""
par Aloha.host[978] arrrate 0.5
par Aloha.host[978] packet_size 1B
attr unit B
par Aloha.host[978] x 36.2845m
attr unit m
par Aloha.host[978] y 119.992m
attr unit m
par Aloha.host[978] txrate 1000Bps
attr unit Bps
par Aloha.host[979] typename "\"Host\""
par Aloha.host[979] arrrate 0.5
par Aloha.host[979] packet_size 1B
attr unit B
par Aloha.host[979] x 51.7116m
attr unit m
par Aloha.host[979] y 22.141m
attr unit m
par Aloha.host[979] txrate 1000Bps
attr unit Bps
par Aloha.host[980] typename "\"Host\""
par Aloha.host[980] arrrate 0.5
par Aloha.host[980] packet_size 1B
attr unit B
par Aloha.host[980] x 68.4809m
attr unit m
par Aloha.host[980] y 9.19678m
attr unit m
par Aloha.host[980] txrate 1000Bps
attr unit Bps
par Aloha.host[981] typename "\"Host\""
par Aloha.host[981] arrrate 0.5
par Aloha.host[981] packet_size 1B
attr unit B
par Aloha.host[981] x 128.773m
attr unit m
par Aloha.host[981] y 70.9411m
attr unit m
par Aloha.host[981] txrate 1000Bps
attr unit Bps
par Aloha.host[982] typename "\"Host\""
par Aloha.host[982] arrrate 0.5
par Aloha.host[982] packet_size 1B
attr unit B
par Aloha.host[982] x 56.7638m
attr unit m
par Aloha.host[982] y 116.475m
attr unit m
par Aloha.host[982] txrate 1000Bps
attr unit Bps
par Aloha.host[983] typename "\"Host\""
par Aloha.host[983] arrrate 0.5
par Aloha.host[983] packet_size 1B
attr unit B
par Aloha.host[983] x 188.79m
attr unit m
par Aloha.host[983] y 184.745m
attr unit m
par Aloha.host[983] txrate 1000Bps
attr unit Bps
par Aloha.host[984] typename "\"Host\""
par Aloha.host[984] arrrate 0.5
par Aloha.host[984] packet_size 1B
attr unit B
par Aloha.host[984] x 55.7022m
attr unit m
par Aloha.host[984] y 92.127m
attr unit m
par Aloha.host[984] txrate 1000Bps
attr unit Bps
par Aloha.host[985] typename "\"Host\""
par Aloha.host[985] arrrate 0.5
par Aloha.host[985] packet_size 1B
attr unit B
par Aloha.host[985] x 172.688m
attr unit m
par Aloha.host[985] y 194.229m
attr unit m
par Aloha.host[985] txrate 1000Bps
attr unit Bps
par Aloha.host[986] typename "\"Host\""
par Aloha.host[986] arrrate 0.5
par Aloha.host[986] packet_size 1B
attr unit B
par Aloha.host[986] x 109.362m
attr unit m
par Aloha.host[986] y 13.0539m
attr unit m
par Aloha.host[986] txrate 1000Bps
attr unit Bps
par Aloha.host[987] typename "\"Host\""
par Aloha.host[987] arrrate 0.5
par Aloha.host[987] packet_size 1B
attr unit B
par Aloha.host[987] x 23.4574m
attr unit m
par Aloha.host[987] y 76.6267m
attr unit m
par Aloha.host[987] txrate 1000Bps
attr unit Bps
par Aloha.host[988] typename "\"Host\""
par Aloha.host[988] arrrate 0.5
par Aloha.host[988] packet_size 1B
attr unit B
par Aloha.host[988] x 69.8442m
attr unit m
par Aloha.host[988] y 140.976m
attr unit m
par Aloha.host[988] txrate 1000Bps
attr unit Bps
par Aloha.host[989] typename "\"Host\""
par Aloha.host[989] arrrate 0.5
par Aloha.host[989] packet_size 1B
attr unit B
par Aloha.host[989] x 61.2716m
attr unit m
par Aloha.host[989] y 11.2484m
attr unit m
par Aloha.host[989] txrate 1000Bps
attr unit Bps
par Aloha.host[990] typename "\"Host\""
par Aloha.host[990] arrrate 0.5
par Aloha.host[990] packet_size 1B
attr unit B
par Aloha.host[990] x 198.298m
attr unit m
par Aloha.host[990] y 56.9814m
attr unit m
par Aloha.host[990] txrate 1000Bps
attr unit Bps
par Aloha.host[991] typename "\"Host\""
par Aloha.host[991] arrrate 0.5
par Aloha.host[991] packet_size 1B
attr unit B
par Aloha.host[991] x 83.7617m
attr unit m
par Aloha.host[991] y 122.144m
attr unit m
par Aloha.host[991] txrate 1000Bps
attr unit Bps
par Aloha.host[992] typename "\"Host\""
par Aloha.host[992] arrrate 0.5
par Aloha.host[992] packet_size 1B
attr unit B
par Aloha.host[992] x 126.423m
attr unit m
par Aloha.host[992] y 24.7975m
attr unit m
par Aloha.host[992] txrate 1000Bps
attr unit Bps
par Aloha.host[993] typename "\"Host\""
par Aloha.host[993] arrrate 0.5
par Aloha.host[993] packet_size 1B
attr unit B
par Aloha.host[993] x 69.6587m
attr unit m
par Aloha.host[993] y 174.864m
attr unit m
par Aloha.host[993] txrate 1000Bps
attr unit Bps
par Aloha.host[994] typename "\"Host\""
par Aloha.host[994] arrrate 0.5
par Aloha.host[994] packet_size 1B
attr unit B
par Aloha.host[994] x 168.584m
attr unit m
par Aloha.host[994] y 4.54837m
attr unit m
par Aloha.host[994] txrate 1000Bps
attr unit Bps
par Aloha.host[995] typename "\"Host\""
par Aloha.host[995] arrrate 0.5
par Aloha.host[995] packet_size 1B
attr unit B
par Aloha.host[995] x 97.9415m
attr unit m
par Aloha.host[995] y 150.318m
attr unit m
par Aloha.host[995] txrate 1000Bps
attr unit Bps
par Aloha.host[996] typename "\"Host\""
par Aloha.host[996] arrrate 0.5
par Aloha.host[996] packet_size 1B
attr unit B
par Aloha.host[996] x 104m
attr unit m
par Aloha.host[996] y 29.9383m
attr unit m
par Aloha.host[996] txrate 1000Bps
attr unit Bps
par Aloha.host[997] typename "\"Host\""
par Aloha.host[997] arrrate 0.5
par Aloha.host[997] packet_size 1B
attr unit B
par Aloha.host[997] x 173.84m
attr unit m
par Aloha.host[997] y 59.8848m
attr unit m
par Aloha.host[997] txrate 1000Bps
attr unit Bps
par Aloha.host[998] typename "\"Host\""
par Aloha.host[998] arrrate 0.5
par Aloha.host[998] packet_size 1B
attr unit B
par Aloha.host[998] x 43.0289m
attr unit m
par Aloha.host[998] y 67.5814m
attr unit m
par Aloha.host[998] txrate 1000Bps
attr unit Bps
par Aloha.host[999] typename "\"Host\""
par Aloha.host[999] arrrate 0.5
par Aloha.host[999] packet_size 1B
attr unit B
par Aloha.host[999] x 83.8663m
attr unit m
par Aloha.host[999] y 76.5456m
attr unit m
par Aloha.host[999] txrate 1000Bps
attr unit Bps
par Aloha.server typename "\"Server\""
par Aloha.server x 136.512m
attr unit m
par Aloha.server y 190.599m
attr unit m
scalar Aloha.server prob_succ 0.36801756637034
scalar Aloha.server uti 18.402753
par Aloha typename "\"Aloha\""
par Aloha numHosts 1000

