version 3
run General-2-20220605-16:52:51-732256
attr configname General
attr datetime 20220605-16:52:51
attr datetimef 20220605-165251
attr experiment General
attr inifile aloha.ini
attr iterationvars $0=0.3
attr iterationvarsd 0.3
attr iterationvarsf 0.3-
attr measurement $0=0.3
attr network Aloha
attr processid 732256
attr repetition 0
attr replication #0
attr resultdir results
attr runnumber 2
attr seedset 2
config network Aloha
config cmdenv-performance-display false
config sim-time-limit 100000s
config **.x "uniform(0m, 200m)"
config **.y "uniform(0m, 200m)"
config *.numHosts 1000
config **.packet_size 1B
config **.txrate 1000Bps
config **.arrrate 0.3

par Aloha.host[0] typename "\"Host\""
par Aloha.host[0] arrrate 0.3
par Aloha.host[0] packet_size 1B
attr unit B
par Aloha.host[0] x 87.199m
attr unit m
par Aloha.host[0] y 37.0164m
attr unit m
par Aloha.host[0] txrate 1000Bps
attr unit Bps
par Aloha.host[1] typename "\"Host\""
par Aloha.host[1] arrrate 0.3
par Aloha.host[1] packet_size 1B
attr unit B
par Aloha.host[1] x 5.18525m
attr unit m
par Aloha.host[1] y 186.308m
attr unit m
par Aloha.host[1] txrate 1000Bps
attr unit Bps
par Aloha.host[2] typename "\"Host\""
par Aloha.host[2] arrrate 0.3
par Aloha.host[2] packet_size 1B
attr unit B
par Aloha.host[2] x 109.932m
attr unit m
par Aloha.host[2] y 189.546m
attr unit m
par Aloha.host[2] txrate 1000Bps
attr unit Bps
par Aloha.host[3] typename "\"Host\""
par Aloha.host[3] arrrate 0.3
par Aloha.host[3] packet_size 1B
attr unit B
par Aloha.host[3] x 87.0645m
attr unit m
par Aloha.host[3] y 96.9498m
attr unit m
par Aloha.host[3] txrate 1000Bps
attr unit Bps
par Aloha.host[4] typename "\"Host\""
par Aloha.host[4] arrrate 0.3
par Aloha.host[4] packet_size 1B
attr unit B
par Aloha.host[4] x 84.0736m
attr unit m
par Aloha.host[4] y 64.1073m
attr unit m
par Aloha.host[4] txrate 1000Bps
attr unit Bps
par Aloha.host[5] typename "\"Host\""
par Aloha.host[5] arrrate 0.3
par Aloha.host[5] packet_size 1B
attr unit B
par Aloha.host[5] x 66.067m
attr unit m
par Aloha.host[5] y 30.8853m
attr unit m
par Aloha.host[5] txrate 1000Bps
attr unit Bps
par Aloha.host[6] typename "\"Host\""
par Aloha.host[6] arrrate 0.3
par Aloha.host[6] packet_size 1B
attr unit B
par Aloha.host[6] x 40.9297m
attr unit m
par Aloha.host[6] y 139.773m
attr unit m
par Aloha.host[6] txrate 1000Bps
attr unit Bps
par Aloha.host[7] typename "\"Host\""
par Aloha.host[7] arrrate 0.3
par Aloha.host[7] packet_size 1B
attr unit B
par Aloha.host[7] x 123.854m
attr unit m
par Aloha.host[7] y 23.9901m
attr unit m
par Aloha.host[7] txrate 1000Bps
attr unit Bps
par Aloha.host[8] typename "\"Host\""
par Aloha.host[8] arrrate 0.3
par Aloha.host[8] packet_size 1B
attr unit B
par Aloha.host[8] x 59.9309m
attr unit m
par Aloha.host[8] y 97.0352m
attr unit m
par Aloha.host[8] txrate 1000Bps
attr unit Bps
par Aloha.host[9] typename "\"Host\""
par Aloha.host[9] arrrate 0.3
par Aloha.host[9] packet_size 1B
attr unit B
par Aloha.host[9] x 53.3655m
attr unit m
par Aloha.host[9] y 126.548m
attr unit m
par Aloha.host[9] txrate 1000Bps
attr unit Bps
par Aloha.host[10] typename "\"Host\""
par Aloha.host[10] arrrate 0.3
par Aloha.host[10] packet_size 1B
attr unit B
par Aloha.host[10] x 124.227m
attr unit m
par Aloha.host[10] y 163.645m
attr unit m
par Aloha.host[10] txrate 1000Bps
attr unit Bps
par Aloha.host[11] typename "\"Host\""
par Aloha.host[11] arrrate 0.3
par Aloha.host[11] packet_size 1B
attr unit B
par Aloha.host[11] x 105.828m
attr unit m
par Aloha.host[11] y 136.605m
attr unit m
par Aloha.host[11] txrate 1000Bps
attr unit Bps
par Aloha.host[12] typename "\"Host\""
par Aloha.host[12] arrrate 0.3
par Aloha.host[12] packet_size 1B
attr unit B
par Aloha.host[12] x 26.916m
attr unit m
par Aloha.host[12] y 99.7122m
attr unit m
par Aloha.host[12] txrate 1000Bps
attr unit Bps
par Aloha.host[13] typename "\"Host\""
par Aloha.host[13] arrrate 0.3
par Aloha.host[13] packet_size 1B
attr unit B
par Aloha.host[13] x 102.716m
attr unit m
par Aloha.host[13] y 117.359m
attr unit m
par Aloha.host[13] txrate 1000Bps
attr unit Bps
par Aloha.host[14] typename "\"Host\""
par Aloha.host[14] arrrate 0.3
par Aloha.host[14] packet_size 1B
attr unit B
par Aloha.host[14] x 36.888m
attr unit m
par Aloha.host[14] y 143.951m
attr unit m
par Aloha.host[14] txrate 1000Bps
attr unit Bps
par Aloha.host[15] typename "\"Host\""
par Aloha.host[15] arrrate 0.3
par Aloha.host[15] packet_size 1B
attr unit B
par Aloha.host[15] x 157.067m
attr unit m
par Aloha.host[15] y 51.6996m
attr unit m
par Aloha.host[15] txrate 1000Bps
attr unit Bps
par Aloha.host[16] typename "\"Host\""
par Aloha.host[16] arrrate 0.3
par Aloha.host[16] packet_size 1B
attr unit B
par Aloha.host[16] x 170.795m
attr unit m
par Aloha.host[16] y 109.241m
attr unit m
par Aloha.host[16] txrate 1000Bps
attr unit Bps
par Aloha.host[17] typename "\"Host\""
par Aloha.host[17] arrrate 0.3
par Aloha.host[17] packet_size 1B
attr unit B
par Aloha.host[17] x 98.8474m
attr unit m
par Aloha.host[17] y 81.4616m
attr unit m
par Aloha.host[17] txrate 1000Bps
attr unit Bps
par Aloha.host[18] typename "\"Host\""
par Aloha.host[18] arrrate 0.3
par Aloha.host[18] packet_size 1B
attr unit B
par Aloha.host[18] x 169.312m
attr unit m
par Aloha.host[18] y 35.3969m
attr unit m
par Aloha.host[18] txrate 1000Bps
attr unit Bps
par Aloha.host[19] typename "\"Host\""
par Aloha.host[19] arrrate 0.3
par Aloha.host[19] packet_size 1B
attr unit B
par Aloha.host[19] x 15.9291m
attr unit m
par Aloha.host[19] y 193.926m
attr unit m
par Aloha.host[19] txrate 1000Bps
attr unit Bps
par Aloha.host[20] typename "\"Host\""
par Aloha.host[20] arrrate 0.3
par Aloha.host[20] packet_size 1B
attr unit B
par Aloha.host[20] x 101.049m
attr unit m
par Aloha.host[20] y 59.4037m
attr unit m
par Aloha.host[20] txrate 1000Bps
attr unit Bps
par Aloha.host[21] typename "\"Host\""
par Aloha.host[21] arrrate 0.3
par Aloha.host[21] packet_size 1B
attr unit B
par Aloha.host[21] x 13.0573m
attr unit m
par Aloha.host[21] y 57.5738m
attr unit m
par Aloha.host[21] txrate 1000Bps
attr unit Bps
par Aloha.host[22] typename "\"Host\""
par Aloha.host[22] arrrate 0.3
par Aloha.host[22] packet_size 1B
attr unit B
par Aloha.host[22] x 85.6245m
attr unit m
par Aloha.host[22] y 23.2387m
attr unit m
par Aloha.host[22] txrate 1000Bps
attr unit Bps
par Aloha.host[23] typename "\"Host\""
par Aloha.host[23] arrrate 0.3
par Aloha.host[23] packet_size 1B
attr unit B
par Aloha.host[23] x 19.3062m
attr unit m
par Aloha.host[23] y 36.3454m
attr unit m
par Aloha.host[23] txrate 1000Bps
attr unit Bps
par Aloha.host[24] typename "\"Host\""
par Aloha.host[24] arrrate 0.3
par Aloha.host[24] packet_size 1B
attr unit B
par Aloha.host[24] x 25.432m
attr unit m
par Aloha.host[24] y 98.858m
attr unit m
par Aloha.host[24] txrate 1000Bps
attr unit Bps
par Aloha.host[25] typename "\"Host\""
par Aloha.host[25] arrrate 0.3
par Aloha.host[25] packet_size 1B
attr unit B
par Aloha.host[25] x 119.349m
attr unit m
par Aloha.host[25] y 113.153m
attr unit m
par Aloha.host[25] txrate 1000Bps
attr unit Bps
par Aloha.host[26] typename "\"Host\""
par Aloha.host[26] arrrate 0.3
par Aloha.host[26] packet_size 1B
attr unit B
par Aloha.host[26] x 45.2024m
attr unit m
par Aloha.host[26] y 44.367m
attr unit m
par Aloha.host[26] txrate 1000Bps
attr unit Bps
par Aloha.host[27] typename "\"Host\""
par Aloha.host[27] arrrate 0.3
par Aloha.host[27] packet_size 1B
attr unit B
par Aloha.host[27] x 21.3891m
attr unit m
par Aloha.host[27] y 153.498m
attr unit m
par Aloha.host[27] txrate 1000Bps
attr unit Bps
par Aloha.host[28] typename "\"Host\""
par Aloha.host[28] arrrate 0.3
par Aloha.host[28] packet_size 1B
attr unit B
par Aloha.host[28] x 44.0612m
attr unit m
par Aloha.host[28] y 115.462m
attr unit m
par Aloha.host[28] txrate 1000Bps
attr unit Bps
par Aloha.host[29] typename "\"Host\""
par Aloha.host[29] arrrate 0.3
par Aloha.host[29] packet_size 1B
attr unit B
par Aloha.host[29] x 69.9653m
attr unit m
par Aloha.host[29] y 33.5647m
attr unit m
par Aloha.host[29] txrate 1000Bps
attr unit Bps
par Aloha.host[30] typename "\"Host\""
par Aloha.host[30] arrrate 0.3
par Aloha.host[30] packet_size 1B
attr unit B
par Aloha.host[30] x 93.5575m
attr unit m
par Aloha.host[30] y 73.4943m
attr unit m
par Aloha.host[30] txrate 1000Bps
attr unit Bps
par Aloha.host[31] typename "\"Host\""
par Aloha.host[31] arrrate 0.3
par Aloha.host[31] packet_size 1B
attr unit B
par Aloha.host[31] x 40.3486m
attr unit m
par Aloha.host[31] y 93.7347m
attr unit m
par Aloha.host[31] txrate 1000Bps
attr unit Bps
par Aloha.host[32] typename "\"Host\""
par Aloha.host[32] arrrate 0.3
par Aloha.host[32] packet_size 1B
attr unit B
par Aloha.host[32] x 128.081m
attr unit m
par Aloha.host[32] y 130.853m
attr unit m
par Aloha.host[32] txrate 1000Bps
attr unit Bps
par Aloha.host[33] typename "\"Host\""
par Aloha.host[33] arrrate 0.3
par Aloha.host[33] packet_size 1B
attr unit B
par Aloha.host[33] x 96.614m
attr unit m
par Aloha.host[33] y 158.618m
attr unit m
par Aloha.host[33] txrate 1000Bps
attr unit Bps
par Aloha.host[34] typename "\"Host\""
par Aloha.host[34] arrrate 0.3
par Aloha.host[34] packet_size 1B
attr unit B
par Aloha.host[34] x 101.047m
attr unit m
par Aloha.host[34] y 132.612m
attr unit m
par Aloha.host[34] txrate 1000Bps
attr unit Bps
par Aloha.host[35] typename "\"Host\""
par Aloha.host[35] arrrate 0.3
par Aloha.host[35] packet_size 1B
attr unit B
par Aloha.host[35] x 77.3785m
attr unit m
par Aloha.host[35] y 122.606m
attr unit m
par Aloha.host[35] txrate 1000Bps
attr unit Bps
par Aloha.host[36] typename "\"Host\""
par Aloha.host[36] arrrate 0.3
par Aloha.host[36] packet_size 1B
attr unit B
par Aloha.host[36] x 158.727m
attr unit m
par Aloha.host[36] y 198.17m
attr unit m
par Aloha.host[36] txrate 1000Bps
attr unit Bps
par Aloha.host[37] typename "\"Host\""
par Aloha.host[37] arrrate 0.3
par Aloha.host[37] packet_size 1B
attr unit B
par Aloha.host[37] x 116.001m
attr unit m
par Aloha.host[37] y 23.897m
attr unit m
par Aloha.host[37] txrate 1000Bps
attr unit Bps
par Aloha.host[38] typename "\"Host\""
par Aloha.host[38] arrrate 0.3
par Aloha.host[38] packet_size 1B
attr unit B
par Aloha.host[38] x 32.4597m
attr unit m
par Aloha.host[38] y 29.713m
attr unit m
par Aloha.host[38] txrate 1000Bps
attr unit Bps
par Aloha.host[39] typename "\"Host\""
par Aloha.host[39] arrrate 0.3
par Aloha.host[39] packet_size 1B
attr unit B
par Aloha.host[39] x 140.15m
attr unit m
par Aloha.host[39] y 170.456m
attr unit m
par Aloha.host[39] txrate 1000Bps
attr unit Bps
par Aloha.host[40] typename "\"Host\""
par Aloha.host[40] arrrate 0.3
par Aloha.host[40] packet_size 1B
attr unit B
par Aloha.host[40] x 192.91m
attr unit m
par Aloha.host[40] y 101.905m
attr unit m
par Aloha.host[40] txrate 1000Bps
attr unit Bps
par Aloha.host[41] typename "\"Host\""
par Aloha.host[41] arrrate 0.3
par Aloha.host[41] packet_size 1B
attr unit B
par Aloha.host[41] x 100.002m
attr unit m
par Aloha.host[41] y 43.454m
attr unit m
par Aloha.host[41] txrate 1000Bps
attr unit Bps
par Aloha.host[42] typename "\"Host\""
par Aloha.host[42] arrrate 0.3
par Aloha.host[42] packet_size 1B
attr unit B
par Aloha.host[42] x 177.904m
attr unit m
par Aloha.host[42] y 198.653m
attr unit m
par Aloha.host[42] txrate 1000Bps
attr unit Bps
par Aloha.host[43] typename "\"Host\""
par Aloha.host[43] arrrate 0.3
par Aloha.host[43] packet_size 1B
attr unit B
par Aloha.host[43] x 68.3227m
attr unit m
par Aloha.host[43] y 63.0595m
attr unit m
par Aloha.host[43] txrate 1000Bps
attr unit Bps
par Aloha.host[44] typename "\"Host\""
par Aloha.host[44] arrrate 0.3
par Aloha.host[44] packet_size 1B
attr unit B
par Aloha.host[44] x 113.429m
attr unit m
par Aloha.host[44] y 51.7466m
attr unit m
par Aloha.host[44] txrate 1000Bps
attr unit Bps
par Aloha.host[45] typename "\"Host\""
par Aloha.host[45] arrrate 0.3
par Aloha.host[45] packet_size 1B
attr unit B
par Aloha.host[45] x 85.5092m
attr unit m
par Aloha.host[45] y 161.835m
attr unit m
par Aloha.host[45] txrate 1000Bps
attr unit Bps
par Aloha.host[46] typename "\"Host\""
par Aloha.host[46] arrrate 0.3
par Aloha.host[46] packet_size 1B
attr unit B
par Aloha.host[46] x 87.3495m
attr unit m
par Aloha.host[46] y 70.7351m
attr unit m
par Aloha.host[46] txrate 1000Bps
attr unit Bps
par Aloha.host[47] typename "\"Host\""
par Aloha.host[47] arrrate 0.3
par Aloha.host[47] packet_size 1B
attr unit B
par Aloha.host[47] x 155.312m
attr unit m
par Aloha.host[47] y 93.5685m
attr unit m
par Aloha.host[47] txrate 1000Bps
attr unit Bps
par Aloha.host[48] typename "\"Host\""
par Aloha.host[48] arrrate 0.3
par Aloha.host[48] packet_size 1B
attr unit B
par Aloha.host[48] x 107.121m
attr unit m
par Aloha.host[48] y 54.8347m
attr unit m
par Aloha.host[48] txrate 1000Bps
attr unit Bps
par Aloha.host[49] typename "\"Host\""
par Aloha.host[49] arrrate 0.3
par Aloha.host[49] packet_size 1B
attr unit B
par Aloha.host[49] x 190.748m
attr unit m
par Aloha.host[49] y 159.64m
attr unit m
par Aloha.host[49] txrate 1000Bps
attr unit Bps
par Aloha.host[50] typename "\"Host\""
par Aloha.host[50] arrrate 0.3
par Aloha.host[50] packet_size 1B
attr unit B
par Aloha.host[50] x 108.842m
attr unit m
par Aloha.host[50] y 162.828m
attr unit m
par Aloha.host[50] txrate 1000Bps
attr unit Bps
par Aloha.host[51] typename "\"Host\""
par Aloha.host[51] arrrate 0.3
par Aloha.host[51] packet_size 1B
attr unit B
par Aloha.host[51] x 16.419m
attr unit m
par Aloha.host[51] y 189.618m
attr unit m
par Aloha.host[51] txrate 1000Bps
attr unit Bps
par Aloha.host[52] typename "\"Host\""
par Aloha.host[52] arrrate 0.3
par Aloha.host[52] packet_size 1B
attr unit B
par Aloha.host[52] x 73.2685m
attr unit m
par Aloha.host[52] y 164.577m
attr unit m
par Aloha.host[52] txrate 1000Bps
attr unit Bps
par Aloha.host[53] typename "\"Host\""
par Aloha.host[53] arrrate 0.3
par Aloha.host[53] packet_size 1B
attr unit B
par Aloha.host[53] x 170.17m
attr unit m
par Aloha.host[53] y 103.028m
attr unit m
par Aloha.host[53] txrate 1000Bps
attr unit Bps
par Aloha.host[54] typename "\"Host\""
par Aloha.host[54] arrrate 0.3
par Aloha.host[54] packet_size 1B
attr unit B
par Aloha.host[54] x 81.255m
attr unit m
par Aloha.host[54] y 44.1996m
attr unit m
par Aloha.host[54] txrate 1000Bps
attr unit Bps
par Aloha.host[55] typename "\"Host\""
par Aloha.host[55] arrrate 0.3
par Aloha.host[55] packet_size 1B
attr unit B
par Aloha.host[55] x 5.44047m
attr unit m
par Aloha.host[55] y 149.326m
attr unit m
par Aloha.host[55] txrate 1000Bps
attr unit Bps
par Aloha.host[56] typename "\"Host\""
par Aloha.host[56] arrrate 0.3
par Aloha.host[56] packet_size 1B
attr unit B
par Aloha.host[56] x 49.4354m
attr unit m
par Aloha.host[56] y 86.3076m
attr unit m
par Aloha.host[56] txrate 1000Bps
attr unit Bps
par Aloha.host[57] typename "\"Host\""
par Aloha.host[57] arrrate 0.3
par Aloha.host[57] packet_size 1B
attr unit B
par Aloha.host[57] x 13.4289m
attr unit m
par Aloha.host[57] y 177.661m
attr unit m
par Aloha.host[57] txrate 1000Bps
attr unit Bps
par Aloha.host[58] typename "\"Host\""
par Aloha.host[58] arrrate 0.3
par Aloha.host[58] packet_size 1B
attr unit B
par Aloha.host[58] x 198.77m
attr unit m
par Aloha.host[58] y 188.239m
attr unit m
par Aloha.host[58] txrate 1000Bps
attr unit Bps
par Aloha.host[59] typename "\"Host\""
par Aloha.host[59] arrrate 0.3
par Aloha.host[59] packet_size 1B
attr unit B
par Aloha.host[59] x 194.116m
attr unit m
par Aloha.host[59] y 100.602m
attr unit m
par Aloha.host[59] txrate 1000Bps
attr unit Bps
par Aloha.host[60] typename "\"Host\""
par Aloha.host[60] arrrate 0.3
par Aloha.host[60] packet_size 1B
attr unit B
par Aloha.host[60] x 160.052m
attr unit m
par Aloha.host[60] y 140.408m
attr unit m
par Aloha.host[60] txrate 1000Bps
attr unit Bps
par Aloha.host[61] typename "\"Host\""
par Aloha.host[61] arrrate 0.3
par Aloha.host[61] packet_size 1B
attr unit B
par Aloha.host[61] x 120.363m
attr unit m
par Aloha.host[61] y 141.308m
attr unit m
par Aloha.host[61] txrate 1000Bps
attr unit Bps
par Aloha.host[62] typename "\"Host\""
par Aloha.host[62] arrrate 0.3
par Aloha.host[62] packet_size 1B
attr unit B
par Aloha.host[62] x 152.992m
attr unit m
par Aloha.host[62] y 96.2044m
attr unit m
par Aloha.host[62] txrate 1000Bps
attr unit Bps
par Aloha.host[63] typename "\"Host\""
par Aloha.host[63] arrrate 0.3
par Aloha.host[63] packet_size 1B
attr unit B
par Aloha.host[63] x 33.8451m
attr unit m
par Aloha.host[63] y 192.063m
attr unit m
par Aloha.host[63] txrate 1000Bps
attr unit Bps
par Aloha.host[64] typename "\"Host\""
par Aloha.host[64] arrrate 0.3
par Aloha.host[64] packet_size 1B
attr unit B
par Aloha.host[64] x 58.6046m
attr unit m
par Aloha.host[64] y 85.2045m
attr unit m
par Aloha.host[64] txrate 1000Bps
attr unit Bps
par Aloha.host[65] typename "\"Host\""
par Aloha.host[65] arrrate 0.3
par Aloha.host[65] packet_size 1B
attr unit B
par Aloha.host[65] x 104.813m
attr unit m
par Aloha.host[65] y 64.5748m
attr unit m
par Aloha.host[65] txrate 1000Bps
attr unit Bps
par Aloha.host[66] typename "\"Host\""
par Aloha.host[66] arrrate 0.3
par Aloha.host[66] packet_size 1B
attr unit B
par Aloha.host[66] x 71.3249m
attr unit m
par Aloha.host[66] y 152.386m
attr unit m
par Aloha.host[66] txrate 1000Bps
attr unit Bps
par Aloha.host[67] typename "\"Host\""
par Aloha.host[67] arrrate 0.3
par Aloha.host[67] packet_size 1B
attr unit B
par Aloha.host[67] x 9.13579m
attr unit m
par Aloha.host[67] y 186.526m
attr unit m
par Aloha.host[67] txrate 1000Bps
attr unit Bps
par Aloha.host[68] typename "\"Host\""
par Aloha.host[68] arrrate 0.3
par Aloha.host[68] packet_size 1B
attr unit B
par Aloha.host[68] x 196.631m
attr unit m
par Aloha.host[68] y 142.243m
attr unit m
par Aloha.host[68] txrate 1000Bps
attr unit Bps
par Aloha.host[69] typename "\"Host\""
par Aloha.host[69] arrrate 0.3
par Aloha.host[69] packet_size 1B
attr unit B
par Aloha.host[69] x 88.271m
attr unit m
par Aloha.host[69] y 103.486m
attr unit m
par Aloha.host[69] txrate 1000Bps
attr unit Bps
par Aloha.host[70] typename "\"Host\""
par Aloha.host[70] arrrate 0.3
par Aloha.host[70] packet_size 1B
attr unit B
par Aloha.host[70] x 100.8m
attr unit m
par Aloha.host[70] y 176.894m
attr unit m
par Aloha.host[70] txrate 1000Bps
attr unit Bps
par Aloha.host[71] typename "\"Host\""
par Aloha.host[71] arrrate 0.3
par Aloha.host[71] packet_size 1B
attr unit B
par Aloha.host[71] x 64.7083m
attr unit m
par Aloha.host[71] y 110.727m
attr unit m
par Aloha.host[71] txrate 1000Bps
attr unit Bps
par Aloha.host[72] typename "\"Host\""
par Aloha.host[72] arrrate 0.3
par Aloha.host[72] packet_size 1B
attr unit B
par Aloha.host[72] x 51.949m
attr unit m
par Aloha.host[72] y 114.728m
attr unit m
par Aloha.host[72] txrate 1000Bps
attr unit Bps
par Aloha.host[73] typename "\"Host\""
par Aloha.host[73] arrrate 0.3
par Aloha.host[73] packet_size 1B
attr unit B
par Aloha.host[73] x 77.378m
attr unit m
par Aloha.host[73] y 78.7867m
attr unit m
par Aloha.host[73] txrate 1000Bps
attr unit Bps
par Aloha.host[74] typename "\"Host\""
par Aloha.host[74] arrrate 0.3
par Aloha.host[74] packet_size 1B
attr unit B
par Aloha.host[74] x 166.403m
attr unit m
par Aloha.host[74] y 185.309m
attr unit m
par Aloha.host[74] txrate 1000Bps
attr unit Bps
par Aloha.host[75] typename "\"Host\""
par Aloha.host[75] arrrate 0.3
par Aloha.host[75] packet_size 1B
attr unit B
par Aloha.host[75] x 147.349m
attr unit m
par Aloha.host[75] y 1.10888m
attr unit m
par Aloha.host[75] txrate 1000Bps
attr unit Bps
par Aloha.host[76] typename "\"Host\""
par Aloha.host[76] arrrate 0.3
par Aloha.host[76] packet_size 1B
attr unit B
par Aloha.host[76] x 75.8421m
attr unit m
par Aloha.host[76] y 145.7m
attr unit m
par Aloha.host[76] txrate 1000Bps
attr unit Bps
par Aloha.host[77] typename "\"Host\""
par Aloha.host[77] arrrate 0.3
par Aloha.host[77] packet_size 1B
attr unit B
par Aloha.host[77] x 2.60347m
attr unit m
par Aloha.host[77] y 71.1507m
attr unit m
par Aloha.host[77] txrate 1000Bps
attr unit Bps
par Aloha.host[78] typename "\"Host\""
par Aloha.host[78] arrrate 0.3
par Aloha.host[78] packet_size 1B
attr unit B
par Aloha.host[78] x 159.481m
attr unit m
par Aloha.host[78] y 42.5866m
attr unit m
par Aloha.host[78] txrate 1000Bps
attr unit Bps
par Aloha.host[79] typename "\"Host\""
par Aloha.host[79] arrrate 0.3
par Aloha.host[79] packet_size 1B
attr unit B
par Aloha.host[79] x 53.8778m
attr unit m
par Aloha.host[79] y 72.4055m
attr unit m
par Aloha.host[79] txrate 1000Bps
attr unit Bps
par Aloha.host[80] typename "\"Host\""
par Aloha.host[80] arrrate 0.3
par Aloha.host[80] packet_size 1B
attr unit B
par Aloha.host[80] x 116.537m
attr unit m
par Aloha.host[80] y 175.66m
attr unit m
par Aloha.host[80] txrate 1000Bps
attr unit Bps
par Aloha.host[81] typename "\"Host\""
par Aloha.host[81] arrrate 0.3
par Aloha.host[81] packet_size 1B
attr unit B
par Aloha.host[81] x 5.11019m
attr unit m
par Aloha.host[81] y 72.6652m
attr unit m
par Aloha.host[81] txrate 1000Bps
attr unit Bps
par Aloha.host[82] typename "\"Host\""
par Aloha.host[82] arrrate 0.3
par Aloha.host[82] packet_size 1B
attr unit B
par Aloha.host[82] x 132.44m
attr unit m
par Aloha.host[82] y 100.641m
attr unit m
par Aloha.host[82] txrate 1000Bps
attr unit Bps
par Aloha.host[83] typename "\"Host\""
par Aloha.host[83] arrrate 0.3
par Aloha.host[83] packet_size 1B
attr unit B
par Aloha.host[83] x 77.5047m
attr unit m
par Aloha.host[83] y 153.498m
attr unit m
par Aloha.host[83] txrate 1000Bps
attr unit Bps
par Aloha.host[84] typename "\"Host\""
par Aloha.host[84] arrrate 0.3
par Aloha.host[84] packet_size 1B
attr unit B
par Aloha.host[84] x 99.4148m
attr unit m
par Aloha.host[84] y 182.895m
attr unit m
par Aloha.host[84] txrate 1000Bps
attr unit Bps
par Aloha.host[85] typename "\"Host\""
par Aloha.host[85] arrrate 0.3
par Aloha.host[85] packet_size 1B
attr unit B
par Aloha.host[85] x 82.9812m
attr unit m
par Aloha.host[85] y 165.274m
attr unit m
par Aloha.host[85] txrate 1000Bps
attr unit Bps
par Aloha.host[86] typename "\"Host\""
par Aloha.host[86] arrrate 0.3
par Aloha.host[86] packet_size 1B
attr unit B
par Aloha.host[86] x 70.1744m
attr unit m
par Aloha.host[86] y 82.3493m
attr unit m
par Aloha.host[86] txrate 1000Bps
attr unit Bps
par Aloha.host[87] typename "\"Host\""
par Aloha.host[87] arrrate 0.3
par Aloha.host[87] packet_size 1B
attr unit B
par Aloha.host[87] x 110.196m
attr unit m
par Aloha.host[87] y 126.169m
attr unit m
par Aloha.host[87] txrate 1000Bps
attr unit Bps
par Aloha.host[88] typename "\"Host\""
par Aloha.host[88] arrrate 0.3
par Aloha.host[88] packet_size 1B
attr unit B
par Aloha.host[88] x 194.582m
attr unit m
par Aloha.host[88] y 68.3823m
attr unit m
par Aloha.host[88] txrate 1000Bps
attr unit Bps
par Aloha.host[89] typename "\"Host\""
par Aloha.host[89] arrrate 0.3
par Aloha.host[89] packet_size 1B
attr unit B
par Aloha.host[89] x 22.5552m
attr unit m
par Aloha.host[89] y 76.3386m
attr unit m
par Aloha.host[89] txrate 1000Bps
attr unit Bps
par Aloha.host[90] typename "\"Host\""
par Aloha.host[90] arrrate 0.3
par Aloha.host[90] packet_size 1B
attr unit B
par Aloha.host[90] x 62.6517m
attr unit m
par Aloha.host[90] y 192.492m
attr unit m
par Aloha.host[90] txrate 1000Bps
attr unit Bps
par Aloha.host[91] typename "\"Host\""
par Aloha.host[91] arrrate 0.3
par Aloha.host[91] packet_size 1B
attr unit B
par Aloha.host[91] x 8.35954m
attr unit m
par Aloha.host[91] y 129.403m
attr unit m
par Aloha.host[91] txrate 1000Bps
attr unit Bps
par Aloha.host[92] typename "\"Host\""
par Aloha.host[92] arrrate 0.3
par Aloha.host[92] packet_size 1B
attr unit B
par Aloha.host[92] x 147.68m
attr unit m
par Aloha.host[92] y 191.569m
attr unit m
par Aloha.host[92] txrate 1000Bps
attr unit Bps
par Aloha.host[93] typename "\"Host\""
par Aloha.host[93] arrrate 0.3
par Aloha.host[93] packet_size 1B
attr unit B
par Aloha.host[93] x 131.502m
attr unit m
par Aloha.host[93] y 160.69m
attr unit m
par Aloha.host[93] txrate 1000Bps
attr unit Bps
par Aloha.host[94] typename "\"Host\""
par Aloha.host[94] arrrate 0.3
par Aloha.host[94] packet_size 1B
attr unit B
par Aloha.host[94] x 42.9271m
attr unit m
par Aloha.host[94] y 45.8772m
attr unit m
par Aloha.host[94] txrate 1000Bps
attr unit Bps
par Aloha.host[95] typename "\"Host\""
par Aloha.host[95] arrrate 0.3
par Aloha.host[95] packet_size 1B
attr unit B
par Aloha.host[95] x 83.3507m
attr unit m
par Aloha.host[95] y 175.84m
attr unit m
par Aloha.host[95] txrate 1000Bps
attr unit Bps
par Aloha.host[96] typename "\"Host\""
par Aloha.host[96] arrrate 0.3
par Aloha.host[96] packet_size 1B
attr unit B
par Aloha.host[96] x 128.768m
attr unit m
par Aloha.host[96] y 118.499m
attr unit m
par Aloha.host[96] txrate 1000Bps
attr unit Bps
par Aloha.host[97] typename "\"Host\""
par Aloha.host[97] arrrate 0.3
par Aloha.host[97] packet_size 1B
attr unit B
par Aloha.host[97] x 132.296m
attr unit m
par Aloha.host[97] y 157.234m
attr unit m
par Aloha.host[97] txrate 1000Bps
attr unit Bps
par Aloha.host[98] typename "\"Host\""
par Aloha.host[98] arrrate 0.3
par Aloha.host[98] packet_size 1B
attr unit B
par Aloha.host[98] x 34.0954m
attr unit m
par Aloha.host[98] y 106.429m
attr unit m
par Aloha.host[98] txrate 1000Bps
attr unit Bps
par Aloha.host[99] typename "\"Host\""
par Aloha.host[99] arrrate 0.3
par Aloha.host[99] packet_size 1B
attr unit B
par Aloha.host[99] x 176.33m
attr unit m
par Aloha.host[99] y 193.658m
attr unit m
par Aloha.host[99] txrate 1000Bps
attr unit Bps
par Aloha.host[100] typename "\"Host\""
par Aloha.host[100] arrrate 0.3
par Aloha.host[100] packet_size 1B
attr unit B
par Aloha.host[100] x 155.602m
attr unit m
par Aloha.host[100] y 114.991m
attr unit m
par Aloha.host[100] txrate 1000Bps
attr unit Bps
par Aloha.host[101] typename "\"Host\""
par Aloha.host[101] arrrate 0.3
par Aloha.host[101] packet_size 1B
attr unit B
par Aloha.host[101] x 26.7908m
attr unit m
par Aloha.host[101] y 95.3687m
attr unit m
par Aloha.host[101] txrate 1000Bps
attr unit Bps
par Aloha.host[102] typename "\"Host\""
par Aloha.host[102] arrrate 0.3
par Aloha.host[102] packet_size 1B
attr unit B
par Aloha.host[102] x 173.783m
attr unit m
par Aloha.host[102] y 84.2277m
attr unit m
par Aloha.host[102] txrate 1000Bps
attr unit Bps
par Aloha.host[103] typename "\"Host\""
par Aloha.host[103] arrrate 0.3
par Aloha.host[103] packet_size 1B
attr unit B
par Aloha.host[103] x 149.756m
attr unit m
par Aloha.host[103] y 119.796m
attr unit m
par Aloha.host[103] txrate 1000Bps
attr unit Bps
par Aloha.host[104] typename "\"Host\""
par Aloha.host[104] arrrate 0.3
par Aloha.host[104] packet_size 1B
attr unit B
par Aloha.host[104] x 159.717m
attr unit m
par Aloha.host[104] y 21.3145m
attr unit m
par Aloha.host[104] txrate 1000Bps
attr unit Bps
par Aloha.host[105] typename "\"Host\""
par Aloha.host[105] arrrate 0.3
par Aloha.host[105] packet_size 1B
attr unit B
par Aloha.host[105] x 108.669m
attr unit m
par Aloha.host[105] y 73.7215m
attr unit m
par Aloha.host[105] txrate 1000Bps
attr unit Bps
par Aloha.host[106] typename "\"Host\""
par Aloha.host[106] arrrate 0.3
par Aloha.host[106] packet_size 1B
attr unit B
par Aloha.host[106] x 44.1676m
attr unit m
par Aloha.host[106] y 43.1613m
attr unit m
par Aloha.host[106] txrate 1000Bps
attr unit Bps
par Aloha.host[107] typename "\"Host\""
par Aloha.host[107] arrrate 0.3
par Aloha.host[107] packet_size 1B
attr unit B
par Aloha.host[107] x 183.692m
attr unit m
par Aloha.host[107] y 161.442m
attr unit m
par Aloha.host[107] txrate 1000Bps
attr unit Bps
par Aloha.host[108] typename "\"Host\""
par Aloha.host[108] arrrate 0.3
par Aloha.host[108] packet_size 1B
attr unit B
par Aloha.host[108] x 118.417m
attr unit m
par Aloha.host[108] y 159.644m
attr unit m
par Aloha.host[108] txrate 1000Bps
attr unit Bps
par Aloha.host[109] typename "\"Host\""
par Aloha.host[109] arrrate 0.3
par Aloha.host[109] packet_size 1B
attr unit B
par Aloha.host[109] x 69.2476m
attr unit m
par Aloha.host[109] y 110.908m
attr unit m
par Aloha.host[109] txrate 1000Bps
attr unit Bps
par Aloha.host[110] typename "\"Host\""
par Aloha.host[110] arrrate 0.3
par Aloha.host[110] packet_size 1B
attr unit B
par Aloha.host[110] x 52.7557m
attr unit m
par Aloha.host[110] y 179.029m
attr unit m
par Aloha.host[110] txrate 1000Bps
attr unit Bps
par Aloha.host[111] typename "\"Host\""
par Aloha.host[111] arrrate 0.3
par Aloha.host[111] packet_size 1B
attr unit B
par Aloha.host[111] x 182.783m
attr unit m
par Aloha.host[111] y 185.828m
attr unit m
par Aloha.host[111] txrate 1000Bps
attr unit Bps
par Aloha.host[112] typename "\"Host\""
par Aloha.host[112] arrrate 0.3
par Aloha.host[112] packet_size 1B
attr unit B
par Aloha.host[112] x 83.9471m
attr unit m
par Aloha.host[112] y 195.527m
attr unit m
par Aloha.host[112] txrate 1000Bps
attr unit Bps
par Aloha.host[113] typename "\"Host\""
par Aloha.host[113] arrrate 0.3
par Aloha.host[113] packet_size 1B
attr unit B
par Aloha.host[113] x 108.038m
attr unit m
par Aloha.host[113] y 183.544m
attr unit m
par Aloha.host[113] txrate 1000Bps
attr unit Bps
par Aloha.host[114] typename "\"Host\""
par Aloha.host[114] arrrate 0.3
par Aloha.host[114] packet_size 1B
attr unit B
par Aloha.host[114] x 121.688m
attr unit m
par Aloha.host[114] y 8.00225m
attr unit m
par Aloha.host[114] txrate 1000Bps
attr unit Bps
par Aloha.host[115] typename "\"Host\""
par Aloha.host[115] arrrate 0.3
par Aloha.host[115] packet_size 1B
attr unit B
par Aloha.host[115] x 165.25m
attr unit m
par Aloha.host[115] y 146.564m
attr unit m
par Aloha.host[115] txrate 1000Bps
attr unit Bps
par Aloha.host[116] typename "\"Host\""
par Aloha.host[116] arrrate 0.3
par Aloha.host[116] packet_size 1B
attr unit B
par Aloha.host[116] x 124.713m
attr unit m
par Aloha.host[116] y 179.275m
attr unit m
par Aloha.host[116] txrate 1000Bps
attr unit Bps
par Aloha.host[117] typename "\"Host\""
par Aloha.host[117] arrrate 0.3
par Aloha.host[117] packet_size 1B
attr unit B
par Aloha.host[117] x 35.3424m
attr unit m
par Aloha.host[117] y 167.566m
attr unit m
par Aloha.host[117] txrate 1000Bps
attr unit Bps
par Aloha.host[118] typename "\"Host\""
par Aloha.host[118] arrrate 0.3
par Aloha.host[118] packet_size 1B
attr unit B
par Aloha.host[118] x 118.251m
attr unit m
par Aloha.host[118] y 107.291m
attr unit m
par Aloha.host[118] txrate 1000Bps
attr unit Bps
par Aloha.host[119] typename "\"Host\""
par Aloha.host[119] arrrate 0.3
par Aloha.host[119] packet_size 1B
attr unit B
par Aloha.host[119] x 97.8532m
attr unit m
par Aloha.host[119] y 64.2637m
attr unit m
par Aloha.host[119] txrate 1000Bps
attr unit Bps
par Aloha.host[120] typename "\"Host\""
par Aloha.host[120] arrrate 0.3
par Aloha.host[120] packet_size 1B
attr unit B
par Aloha.host[120] x 109.582m
attr unit m
par Aloha.host[120] y 79.4508m
attr unit m
par Aloha.host[120] txrate 1000Bps
attr unit Bps
par Aloha.host[121] typename "\"Host\""
par Aloha.host[121] arrrate 0.3
par Aloha.host[121] packet_size 1B
attr unit B
par Aloha.host[121] x 139.904m
attr unit m
par Aloha.host[121] y 55.4878m
attr unit m
par Aloha.host[121] txrate 1000Bps
attr unit Bps
par Aloha.host[122] typename "\"Host\""
par Aloha.host[122] arrrate 0.3
par Aloha.host[122] packet_size 1B
attr unit B
par Aloha.host[122] x 49.1622m
attr unit m
par Aloha.host[122] y 187.25m
attr unit m
par Aloha.host[122] txrate 1000Bps
attr unit Bps
par Aloha.host[123] typename "\"Host\""
par Aloha.host[123] arrrate 0.3
par Aloha.host[123] packet_size 1B
attr unit B
par Aloha.host[123] x 37.3254m
attr unit m
par Aloha.host[123] y 92.7485m
attr unit m
par Aloha.host[123] txrate 1000Bps
attr unit Bps
par Aloha.host[124] typename "\"Host\""
par Aloha.host[124] arrrate 0.3
par Aloha.host[124] packet_size 1B
attr unit B
par Aloha.host[124] x 22.1166m
attr unit m
par Aloha.host[124] y 170.458m
attr unit m
par Aloha.host[124] txrate 1000Bps
attr unit Bps
par Aloha.host[125] typename "\"Host\""
par Aloha.host[125] arrrate 0.3
par Aloha.host[125] packet_size 1B
attr unit B
par Aloha.host[125] x 54.8119m
attr unit m
par Aloha.host[125] y 42.5535m
attr unit m
par Aloha.host[125] txrate 1000Bps
attr unit Bps
par Aloha.host[126] typename "\"Host\""
par Aloha.host[126] arrrate 0.3
par Aloha.host[126] packet_size 1B
attr unit B
par Aloha.host[126] x 2.05001m
attr unit m
par Aloha.host[126] y 0.0247168m
attr unit m
par Aloha.host[126] txrate 1000Bps
attr unit Bps
par Aloha.host[127] typename "\"Host\""
par Aloha.host[127] arrrate 0.3
par Aloha.host[127] packet_size 1B
attr unit B
par Aloha.host[127] x 125.872m
attr unit m
par Aloha.host[127] y 18.5793m
attr unit m
par Aloha.host[127] txrate 1000Bps
attr unit Bps
par Aloha.host[128] typename "\"Host\""
par Aloha.host[128] arrrate 0.3
par Aloha.host[128] packet_size 1B
attr unit B
par Aloha.host[128] x 59.0345m
attr unit m
par Aloha.host[128] y 35.0233m
attr unit m
par Aloha.host[128] txrate 1000Bps
attr unit Bps
par Aloha.host[129] typename "\"Host\""
par Aloha.host[129] arrrate 0.3
par Aloha.host[129] packet_size 1B
attr unit B
par Aloha.host[129] x 37.4573m
attr unit m
par Aloha.host[129] y 102.972m
attr unit m
par Aloha.host[129] txrate 1000Bps
attr unit Bps
par Aloha.host[130] typename "\"Host\""
par Aloha.host[130] arrrate 0.3
par Aloha.host[130] packet_size 1B
attr unit B
par Aloha.host[130] x 19.0576m
attr unit m
par Aloha.host[130] y 175.998m
attr unit m
par Aloha.host[130] txrate 1000Bps
attr unit Bps
par Aloha.host[131] typename "\"Host\""
par Aloha.host[131] arrrate 0.3
par Aloha.host[131] packet_size 1B
attr unit B
par Aloha.host[131] x 56.7512m
attr unit m
par Aloha.host[131] y 156.958m
attr unit m
par Aloha.host[131] txrate 1000Bps
attr unit Bps
par Aloha.host[132] typename "\"Host\""
par Aloha.host[132] arrrate 0.3
par Aloha.host[132] packet_size 1B
attr unit B
par Aloha.host[132] x 42.9849m
attr unit m
par Aloha.host[132] y 105.964m
attr unit m
par Aloha.host[132] txrate 1000Bps
attr unit Bps
par Aloha.host[133] typename "\"Host\""
par Aloha.host[133] arrrate 0.3
par Aloha.host[133] packet_size 1B
attr unit B
par Aloha.host[133] x 57.1207m
attr unit m
par Aloha.host[133] y 54.7676m
attr unit m
par Aloha.host[133] txrate 1000Bps
attr unit Bps
par Aloha.host[134] typename "\"Host\""
par Aloha.host[134] arrrate 0.3
par Aloha.host[134] packet_size 1B
attr unit B
par Aloha.host[134] x 94.282m
attr unit m
par Aloha.host[134] y 5.27683m
attr unit m
par Aloha.host[134] txrate 1000Bps
attr unit Bps
par Aloha.host[135] typename "\"Host\""
par Aloha.host[135] arrrate 0.3
par Aloha.host[135] packet_size 1B
attr unit B
par Aloha.host[135] x 109.899m
attr unit m
par Aloha.host[135] y 173.942m
attr unit m
par Aloha.host[135] txrate 1000Bps
attr unit Bps
par Aloha.host[136] typename "\"Host\""
par Aloha.host[136] arrrate 0.3
par Aloha.host[136] packet_size 1B
attr unit B
par Aloha.host[136] x 169.023m
attr unit m
par Aloha.host[136] y 55.0876m
attr unit m
par Aloha.host[136] txrate 1000Bps
attr unit Bps
par Aloha.host[137] typename "\"Host\""
par Aloha.host[137] arrrate 0.3
par Aloha.host[137] packet_size 1B
attr unit B
par Aloha.host[137] x 197.702m
attr unit m
par Aloha.host[137] y 29.0421m
attr unit m
par Aloha.host[137] txrate 1000Bps
attr unit Bps
par Aloha.host[138] typename "\"Host\""
par Aloha.host[138] arrrate 0.3
par Aloha.host[138] packet_size 1B
attr unit B
par Aloha.host[138] x 9.77362m
attr unit m
par Aloha.host[138] y 101.082m
attr unit m
par Aloha.host[138] txrate 1000Bps
attr unit Bps
par Aloha.host[139] typename "\"Host\""
par Aloha.host[139] arrrate 0.3
par Aloha.host[139] packet_size 1B
attr unit B
par Aloha.host[139] x 46.4237m
attr unit m
par Aloha.host[139] y 67.0189m
attr unit m
par Aloha.host[139] txrate 1000Bps
attr unit Bps
par Aloha.host[140] typename "\"Host\""
par Aloha.host[140] arrrate 0.3
par Aloha.host[140] packet_size 1B
attr unit B
par Aloha.host[140] x 128.662m
attr unit m
par Aloha.host[140] y 32.3391m
attr unit m
par Aloha.host[140] txrate 1000Bps
attr unit Bps
par Aloha.host[141] typename "\"Host\""
par Aloha.host[141] arrrate 0.3
par Aloha.host[141] packet_size 1B
attr unit B
par Aloha.host[141] x 32.2933m
attr unit m
par Aloha.host[141] y 43.858m
attr unit m
par Aloha.host[141] txrate 1000Bps
attr unit Bps
par Aloha.host[142] typename "\"Host\""
par Aloha.host[142] arrrate 0.3
par Aloha.host[142] packet_size 1B
attr unit B
par Aloha.host[142] x 174.029m
attr unit m
par Aloha.host[142] y 167.304m
attr unit m
par Aloha.host[142] txrate 1000Bps
attr unit Bps
par Aloha.host[143] typename "\"Host\""
par Aloha.host[143] arrrate 0.3
par Aloha.host[143] packet_size 1B
attr unit B
par Aloha.host[143] x 43.4805m
attr unit m
par Aloha.host[143] y 144.07m
attr unit m
par Aloha.host[143] txrate 1000Bps
attr unit Bps
par Aloha.host[144] typename "\"Host\""
par Aloha.host[144] arrrate 0.3
par Aloha.host[144] packet_size 1B
attr unit B
par Aloha.host[144] x 148.351m
attr unit m
par Aloha.host[144] y 10.2976m
attr unit m
par Aloha.host[144] txrate 1000Bps
attr unit Bps
par Aloha.host[145] typename "\"Host\""
par Aloha.host[145] arrrate 0.3
par Aloha.host[145] packet_size 1B
attr unit B
par Aloha.host[145] x 130.604m
attr unit m
par Aloha.host[145] y 124.654m
attr unit m
par Aloha.host[145] txrate 1000Bps
attr unit Bps
par Aloha.host[146] typename "\"Host\""
par Aloha.host[146] arrrate 0.3
par Aloha.host[146] packet_size 1B
attr unit B
par Aloha.host[146] x 159.777m
attr unit m
par Aloha.host[146] y 57.2539m
attr unit m
par Aloha.host[146] txrate 1000Bps
attr unit Bps
par Aloha.host[147] typename "\"Host\""
par Aloha.host[147] arrrate 0.3
par Aloha.host[147] packet_size 1B
attr unit B
par Aloha.host[147] x 6.24951m
attr unit m
par Aloha.host[147] y 162.556m
attr unit m
par Aloha.host[147] txrate 1000Bps
attr unit Bps
par Aloha.host[148] typename "\"Host\""
par Aloha.host[148] arrrate 0.3
par Aloha.host[148] packet_size 1B
attr unit B
par Aloha.host[148] x 45.9148m
attr unit m
par Aloha.host[148] y 109.175m
attr unit m
par Aloha.host[148] txrate 1000Bps
attr unit Bps
par Aloha.host[149] typename "\"Host\""
par Aloha.host[149] arrrate 0.3
par Aloha.host[149] packet_size 1B
attr unit B
par Aloha.host[149] x 140.926m
attr unit m
par Aloha.host[149] y 3.65401m
attr unit m
par Aloha.host[149] txrate 1000Bps
attr unit Bps
par Aloha.host[150] typename "\"Host\""
par Aloha.host[150] arrrate 0.3
par Aloha.host[150] packet_size 1B
attr unit B
par Aloha.host[150] x 17.5125m
attr unit m
par Aloha.host[150] y 3.22205m
attr unit m
par Aloha.host[150] txrate 1000Bps
attr unit Bps
par Aloha.host[151] typename "\"Host\""
par Aloha.host[151] arrrate 0.3
par Aloha.host[151] packet_size 1B
attr unit B
par Aloha.host[151] x 6.1179m
attr unit m
par Aloha.host[151] y 187.007m
attr unit m
par Aloha.host[151] txrate 1000Bps
attr unit Bps
par Aloha.host[152] typename "\"Host\""
par Aloha.host[152] arrrate 0.3
par Aloha.host[152] packet_size 1B
attr unit B
par Aloha.host[152] x 71.427m
attr unit m
par Aloha.host[152] y 78.1171m
attr unit m
par Aloha.host[152] txrate 1000Bps
attr unit Bps
par Aloha.host[153] typename "\"Host\""
par Aloha.host[153] arrrate 0.3
par Aloha.host[153] packet_size 1B
attr unit B
par Aloha.host[153] x 117.956m
attr unit m
par Aloha.host[153] y 182.131m
attr unit m
par Aloha.host[153] txrate 1000Bps
attr unit Bps
par Aloha.host[154] typename "\"Host\""
par Aloha.host[154] arrrate 0.3
par Aloha.host[154] packet_size 1B
attr unit B
par Aloha.host[154] x 10.4445m
attr unit m
par Aloha.host[154] y 163.893m
attr unit m
par Aloha.host[154] txrate 1000Bps
attr unit Bps
par Aloha.host[155] typename "\"Host\""
par Aloha.host[155] arrrate 0.3
par Aloha.host[155] packet_size 1B
attr unit B
par Aloha.host[155] x 13.1327m
attr unit m
par Aloha.host[155] y 18.0741m
attr unit m
par Aloha.host[155] txrate 1000Bps
attr unit Bps
par Aloha.host[156] typename "\"Host\""
par Aloha.host[156] arrrate 0.3
par Aloha.host[156] packet_size 1B
attr unit B
par Aloha.host[156] x 8.70024m
attr unit m
par Aloha.host[156] y 71.6481m
attr unit m
par Aloha.host[156] txrate 1000Bps
attr unit Bps
par Aloha.host[157] typename "\"Host\""
par Aloha.host[157] arrrate 0.3
par Aloha.host[157] packet_size 1B
attr unit B
par Aloha.host[157] x 79.0302m
attr unit m
par Aloha.host[157] y 3.79703m
attr unit m
par Aloha.host[157] txrate 1000Bps
attr unit Bps
par Aloha.host[158] typename "\"Host\""
par Aloha.host[158] arrrate 0.3
par Aloha.host[158] packet_size 1B
attr unit B
par Aloha.host[158] x 133.685m
attr unit m
par Aloha.host[158] y 90.0053m
attr unit m
par Aloha.host[158] txrate 1000Bps
attr unit Bps
par Aloha.host[159] typename "\"Host\""
par Aloha.host[159] arrrate 0.3
par Aloha.host[159] packet_size 1B
attr unit B
par Aloha.host[159] x 39.6054m
attr unit m
par Aloha.host[159] y 6.07365m
attr unit m
par Aloha.host[159] txrate 1000Bps
attr unit Bps
par Aloha.host[160] typename "\"Host\""
par Aloha.host[160] arrrate 0.3
par Aloha.host[160] packet_size 1B
attr unit B
par Aloha.host[160] x 175.253m
attr unit m
par Aloha.host[160] y 54.0708m
attr unit m
par Aloha.host[160] txrate 1000Bps
attr unit Bps
par Aloha.host[161] typename "\"Host\""
par Aloha.host[161] arrrate 0.3
par Aloha.host[161] packet_size 1B
attr unit B
par Aloha.host[161] x 86.4778m
attr unit m
par Aloha.host[161] y 0.516515m
attr unit m
par Aloha.host[161] txrate 1000Bps
attr unit Bps
par Aloha.host[162] typename "\"Host\""
par Aloha.host[162] arrrate 0.3
par Aloha.host[162] packet_size 1B
attr unit B
par Aloha.host[162] x 123.928m
attr unit m
par Aloha.host[162] y 86.7492m
attr unit m
par Aloha.host[162] txrate 1000Bps
attr unit Bps
par Aloha.host[163] typename "\"Host\""
par Aloha.host[163] arrrate 0.3
par Aloha.host[163] packet_size 1B
attr unit B
par Aloha.host[163] x 58.0853m
attr unit m
par Aloha.host[163] y 117.435m
attr unit m
par Aloha.host[163] txrate 1000Bps
attr unit Bps
par Aloha.host[164] typename "\"Host\""
par Aloha.host[164] arrrate 0.3
par Aloha.host[164] packet_size 1B
attr unit B
par Aloha.host[164] x 123.051m
attr unit m
par Aloha.host[164] y 198.397m
attr unit m
par Aloha.host[164] txrate 1000Bps
attr unit Bps
par Aloha.host[165] typename "\"Host\""
par Aloha.host[165] arrrate 0.3
par Aloha.host[165] packet_size 1B
attr unit B
par Aloha.host[165] x 190.732m
attr unit m
par Aloha.host[165] y 87.1042m
attr unit m
par Aloha.host[165] txrate 1000Bps
attr unit Bps
par Aloha.host[166] typename "\"Host\""
par Aloha.host[166] arrrate 0.3
par Aloha.host[166] packet_size 1B
attr unit B
par Aloha.host[166] x 89.6029m
attr unit m
par Aloha.host[166] y 72.4855m
attr unit m
par Aloha.host[166] txrate 1000Bps
attr unit Bps
par Aloha.host[167] typename "\"Host\""
par Aloha.host[167] arrrate 0.3
par Aloha.host[167] packet_size 1B
attr unit B
par Aloha.host[167] x 41.41m
attr unit m
par Aloha.host[167] y 174.625m
attr unit m
par Aloha.host[167] txrate 1000Bps
attr unit Bps
par Aloha.host[168] typename "\"Host\""
par Aloha.host[168] arrrate 0.3
par Aloha.host[168] packet_size 1B
attr unit B
par Aloha.host[168] x 85.0735m
attr unit m
par Aloha.host[168] y 97.0108m
attr unit m
par Aloha.host[168] txrate 1000Bps
attr unit Bps
par Aloha.host[169] typename "\"Host\""
par Aloha.host[169] arrrate 0.3
par Aloha.host[169] packet_size 1B
attr unit B
par Aloha.host[169] x 88.9149m
attr unit m
par Aloha.host[169] y 148.772m
attr unit m
par Aloha.host[169] txrate 1000Bps
attr unit Bps
par Aloha.host[170] typename "\"Host\""
par Aloha.host[170] arrrate 0.3
par Aloha.host[170] packet_size 1B
attr unit B
par Aloha.host[170] x 101.523m
attr unit m
par Aloha.host[170] y 150.836m
attr unit m
par Aloha.host[170] txrate 1000Bps
attr unit Bps
par Aloha.host[171] typename "\"Host\""
par Aloha.host[171] arrrate 0.3
par Aloha.host[171] packet_size 1B
attr unit B
par Aloha.host[171] x 105.147m
attr unit m
par Aloha.host[171] y 64.7366m
attr unit m
par Aloha.host[171] txrate 1000Bps
attr unit Bps
par Aloha.host[172] typename "\"Host\""
par Aloha.host[172] arrrate 0.3
par Aloha.host[172] packet_size 1B
attr unit B
par Aloha.host[172] x 8.48584m
attr unit m
par Aloha.host[172] y 147.07m
attr unit m
par Aloha.host[172] txrate 1000Bps
attr unit Bps
par Aloha.host[173] typename "\"Host\""
par Aloha.host[173] arrrate 0.3
par Aloha.host[173] packet_size 1B
attr unit B
par Aloha.host[173] x 32.8838m
attr unit m
par Aloha.host[173] y 37.1179m
attr unit m
par Aloha.host[173] txrate 1000Bps
attr unit Bps
par Aloha.host[174] typename "\"Host\""
par Aloha.host[174] arrrate 0.3
par Aloha.host[174] packet_size 1B
attr unit B
par Aloha.host[174] x 90.0454m
attr unit m
par Aloha.host[174] y 26.4184m
attr unit m
par Aloha.host[174] txrate 1000Bps
attr unit Bps
par Aloha.host[175] typename "\"Host\""
par Aloha.host[175] arrrate 0.3
par Aloha.host[175] packet_size 1B
attr unit B
par Aloha.host[175] x 141.594m
attr unit m
par Aloha.host[175] y 1.99438m
attr unit m
par Aloha.host[175] txrate 1000Bps
attr unit Bps
par Aloha.host[176] typename "\"Host\""
par Aloha.host[176] arrrate 0.3
par Aloha.host[176] packet_size 1B
attr unit B
par Aloha.host[176] x 155.518m
attr unit m
par Aloha.host[176] y 74.6082m
attr unit m
par Aloha.host[176] txrate 1000Bps
attr unit Bps
par Aloha.host[177] typename "\"Host\""
par Aloha.host[177] arrrate 0.3
par Aloha.host[177] packet_size 1B
attr unit B
par Aloha.host[177] x 155.421m
attr unit m
par Aloha.host[177] y 2.16018m
attr unit m
par Aloha.host[177] txrate 1000Bps
attr unit Bps
par Aloha.host[178] typename "\"Host\""
par Aloha.host[178] arrrate 0.3
par Aloha.host[178] packet_size 1B
attr unit B
par Aloha.host[178] x 100.556m
attr unit m
par Aloha.host[178] y 169.692m
attr unit m
par Aloha.host[178] txrate 1000Bps
attr unit Bps
par Aloha.host[179] typename "\"Host\""
par Aloha.host[179] arrrate 0.3
par Aloha.host[179] packet_size 1B
attr unit B
par Aloha.host[179] x 191.35m
attr unit m
par Aloha.host[179] y 48.6334m
attr unit m
par Aloha.host[179] txrate 1000Bps
attr unit Bps
par Aloha.host[180] typename "\"Host\""
par Aloha.host[180] arrrate 0.3
par Aloha.host[180] packet_size 1B
attr unit B
par Aloha.host[180] x 66.3747m
attr unit m
par Aloha.host[180] y 136.005m
attr unit m
par Aloha.host[180] txrate 1000Bps
attr unit Bps
par Aloha.host[181] typename "\"Host\""
par Aloha.host[181] arrrate 0.3
par Aloha.host[181] packet_size 1B
attr unit B
par Aloha.host[181] x 96.2916m
attr unit m
par Aloha.host[181] y 135.428m
attr unit m
par Aloha.host[181] txrate 1000Bps
attr unit Bps
par Aloha.host[182] typename "\"Host\""
par Aloha.host[182] arrrate 0.3
par Aloha.host[182] packet_size 1B
attr unit B
par Aloha.host[182] x 149.675m
attr unit m
par Aloha.host[182] y 177.165m
attr unit m
par Aloha.host[182] txrate 1000Bps
attr unit Bps
par Aloha.host[183] typename "\"Host\""
par Aloha.host[183] arrrate 0.3
par Aloha.host[183] packet_size 1B
attr unit B
par Aloha.host[183] x 171.568m
attr unit m
par Aloha.host[183] y 30.7131m
attr unit m
par Aloha.host[183] txrate 1000Bps
attr unit Bps
par Aloha.host[184] typename "\"Host\""
par Aloha.host[184] arrrate 0.3
par Aloha.host[184] packet_size 1B
attr unit B
par Aloha.host[184] x 82.892m
attr unit m
par Aloha.host[184] y 189.339m
attr unit m
par Aloha.host[184] txrate 1000Bps
attr unit Bps
par Aloha.host[185] typename "\"Host\""
par Aloha.host[185] arrrate 0.3
par Aloha.host[185] packet_size 1B
attr unit B
par Aloha.host[185] x 169.737m
attr unit m
par Aloha.host[185] y 58.7487m
attr unit m
par Aloha.host[185] txrate 1000Bps
attr unit Bps
par Aloha.host[186] typename "\"Host\""
par Aloha.host[186] arrrate 0.3
par Aloha.host[186] packet_size 1B
attr unit B
par Aloha.host[186] x 88.9142m
attr unit m
par Aloha.host[186] y 147.32m
attr unit m
par Aloha.host[186] txrate 1000Bps
attr unit Bps
par Aloha.host[187] typename "\"Host\""
par Aloha.host[187] arrrate 0.3
par Aloha.host[187] packet_size 1B
attr unit B
par Aloha.host[187] x 143.149m
attr unit m
par Aloha.host[187] y 95.1078m
attr unit m
par Aloha.host[187] txrate 1000Bps
attr unit Bps
par Aloha.host[188] typename "\"Host\""
par Aloha.host[188] arrrate 0.3
par Aloha.host[188] packet_size 1B
attr unit B
par Aloha.host[188] x 1.68967m
attr unit m
par Aloha.host[188] y 32.9734m
attr unit m
par Aloha.host[188] txrate 1000Bps
attr unit Bps
par Aloha.host[189] typename "\"Host\""
par Aloha.host[189] arrrate 0.3
par Aloha.host[189] packet_size 1B
attr unit B
par Aloha.host[189] x 5.04028m
attr unit m
par Aloha.host[189] y 165.491m
attr unit m
par Aloha.host[189] txrate 1000Bps
attr unit Bps
par Aloha.host[190] typename "\"Host\""
par Aloha.host[190] arrrate 0.3
par Aloha.host[190] packet_size 1B
attr unit B
par Aloha.host[190] x 188.09m
attr unit m
par Aloha.host[190] y 107.94m
attr unit m
par Aloha.host[190] txrate 1000Bps
attr unit Bps
par Aloha.host[191] typename "\"Host\""
par Aloha.host[191] arrrate 0.3
par Aloha.host[191] packet_size 1B
attr unit B
par Aloha.host[191] x 20.4276m
attr unit m
par Aloha.host[191] y 70.8345m
attr unit m
par Aloha.host[191] txrate 1000Bps
attr unit Bps
par Aloha.host[192] typename "\"Host\""
par Aloha.host[192] arrrate 0.3
par Aloha.host[192] packet_size 1B
attr unit B
par Aloha.host[192] x 132.394m
attr unit m
par Aloha.host[192] y 168.4m
attr unit m
par Aloha.host[192] txrate 1000Bps
attr unit Bps
par Aloha.host[193] typename "\"Host\""
par Aloha.host[193] arrrate 0.3
par Aloha.host[193] packet_size 1B
attr unit B
par Aloha.host[193] x 56.6517m
attr unit m
par Aloha.host[193] y 6.36098m
attr unit m
par Aloha.host[193] txrate 1000Bps
attr unit Bps
par Aloha.host[194] typename "\"Host\""
par Aloha.host[194] arrrate 0.3
par Aloha.host[194] packet_size 1B
attr unit B
par Aloha.host[194] x 40.1685m
attr unit m
par Aloha.host[194] y 13.547m
attr unit m
par Aloha.host[194] txrate 1000Bps
attr unit Bps
par Aloha.host[195] typename "\"Host\""
par Aloha.host[195] arrrate 0.3
par Aloha.host[195] packet_size 1B
attr unit B
par Aloha.host[195] x 77.6668m
attr unit m
par Aloha.host[195] y 125.636m
attr unit m
par Aloha.host[195] txrate 1000Bps
attr unit Bps
par Aloha.host[196] typename "\"Host\""
par Aloha.host[196] arrrate 0.3
par Aloha.host[196] packet_size 1B
attr unit B
par Aloha.host[196] x 185.18m
attr unit m
par Aloha.host[196] y 126.989m
attr unit m
par Aloha.host[196] txrate 1000Bps
attr unit Bps
par Aloha.host[197] typename "\"Host\""
par Aloha.host[197] arrrate 0.3
par Aloha.host[197] packet_size 1B
attr unit B
par Aloha.host[197] x 114.055m
attr unit m
par Aloha.host[197] y 153.947m
attr unit m
par Aloha.host[197] txrate 1000Bps
attr unit Bps
par Aloha.host[198] typename "\"Host\""
par Aloha.host[198] arrrate 0.3
par Aloha.host[198] packet_size 1B
attr unit B
par Aloha.host[198] x 183.343m
attr unit m
par Aloha.host[198] y 88.2777m
attr unit m
par Aloha.host[198] txrate 1000Bps
attr unit Bps
par Aloha.host[199] typename "\"Host\""
par Aloha.host[199] arrrate 0.3
par Aloha.host[199] packet_size 1B
attr unit B
par Aloha.host[199] x 140.453m
attr unit m
par Aloha.host[199] y 171.694m
attr unit m
par Aloha.host[199] txrate 1000Bps
attr unit Bps
par Aloha.host[200] typename "\"Host\""
par Aloha.host[200] arrrate 0.3
par Aloha.host[200] packet_size 1B
attr unit B
par Aloha.host[200] x 100.243m
attr unit m
par Aloha.host[200] y 76.3325m
attr unit m
par Aloha.host[200] txrate 1000Bps
attr unit Bps
par Aloha.host[201] typename "\"Host\""
par Aloha.host[201] arrrate 0.3
par Aloha.host[201] packet_size 1B
attr unit B
par Aloha.host[201] x 101.217m
attr unit m
par Aloha.host[201] y 192.956m
attr unit m
par Aloha.host[201] txrate 1000Bps
attr unit Bps
par Aloha.host[202] typename "\"Host\""
par Aloha.host[202] arrrate 0.3
par Aloha.host[202] packet_size 1B
attr unit B
par Aloha.host[202] x 43.7642m
attr unit m
par Aloha.host[202] y 156.06m
attr unit m
par Aloha.host[202] txrate 1000Bps
attr unit Bps
par Aloha.host[203] typename "\"Host\""
par Aloha.host[203] arrrate 0.3
par Aloha.host[203] packet_size 1B
attr unit B
par Aloha.host[203] x 0.932704m
attr unit m
par Aloha.host[203] y 85.1949m
attr unit m
par Aloha.host[203] txrate 1000Bps
attr unit Bps
par Aloha.host[204] typename "\"Host\""
par Aloha.host[204] arrrate 0.3
par Aloha.host[204] packet_size 1B
attr unit B
par Aloha.host[204] x 83.5672m
attr unit m
par Aloha.host[204] y 69.2196m
attr unit m
par Aloha.host[204] txrate 1000Bps
attr unit Bps
par Aloha.host[205] typename "\"Host\""
par Aloha.host[205] arrrate 0.3
par Aloha.host[205] packet_size 1B
attr unit B
par Aloha.host[205] x 112.675m
attr unit m
par Aloha.host[205] y 107.837m
attr unit m
par Aloha.host[205] txrate 1000Bps
attr unit Bps
par Aloha.host[206] typename "\"Host\""
par Aloha.host[206] arrrate 0.3
par Aloha.host[206] packet_size 1B
attr unit B
par Aloha.host[206] x 175.312m
attr unit m
par Aloha.host[206] y 86.2428m
attr unit m
par Aloha.host[206] txrate 1000Bps
attr unit Bps
par Aloha.host[207] typename "\"Host\""
par Aloha.host[207] arrrate 0.3
par Aloha.host[207] packet_size 1B
attr unit B
par Aloha.host[207] x 135.517m
attr unit m
par Aloha.host[207] y 156.527m
attr unit m
par Aloha.host[207] txrate 1000Bps
attr unit Bps
par Aloha.host[208] typename "\"Host\""
par Aloha.host[208] arrrate 0.3
par Aloha.host[208] packet_size 1B
attr unit B
par Aloha.host[208] x 168.467m
attr unit m
par Aloha.host[208] y 133.465m
attr unit m
par Aloha.host[208] txrate 1000Bps
attr unit Bps
par Aloha.host[209] typename "\"Host\""
par Aloha.host[209] arrrate 0.3
par Aloha.host[209] packet_size 1B
attr unit B
par Aloha.host[209] x 185.232m
attr unit m
par Aloha.host[209] y 138.524m
attr unit m
par Aloha.host[209] txrate 1000Bps
attr unit Bps
par Aloha.host[210] typename "\"Host\""
par Aloha.host[210] arrrate 0.3
par Aloha.host[210] packet_size 1B
attr unit B
par Aloha.host[210] x 188.223m
attr unit m
par Aloha.host[210] y 68.768m
attr unit m
par Aloha.host[210] txrate 1000Bps
attr unit Bps
par Aloha.host[211] typename "\"Host\""
par Aloha.host[211] arrrate 0.3
par Aloha.host[211] packet_size 1B
attr unit B
par Aloha.host[211] x 163.204m
attr unit m
par Aloha.host[211] y 115.156m
attr unit m
par Aloha.host[211] txrate 1000Bps
attr unit Bps
par Aloha.host[212] typename "\"Host\""
par Aloha.host[212] arrrate 0.3
par Aloha.host[212] packet_size 1B
attr unit B
par Aloha.host[212] x 26.2789m
attr unit m
par Aloha.host[212] y 83.7815m
attr unit m
par Aloha.host[212] txrate 1000Bps
attr unit Bps
par Aloha.host[213] typename "\"Host\""
par Aloha.host[213] arrrate 0.3
par Aloha.host[213] packet_size 1B
attr unit B
par Aloha.host[213] x 69.326m
attr unit m
par Aloha.host[213] y 13.7198m
attr unit m
par Aloha.host[213] txrate 1000Bps
attr unit Bps
par Aloha.host[214] typename "\"Host\""
par Aloha.host[214] arrrate 0.3
par Aloha.host[214] packet_size 1B
attr unit B
par Aloha.host[214] x 41.7005m
attr unit m
par Aloha.host[214] y 19.5096m
attr unit m
par Aloha.host[214] txrate 1000Bps
attr unit Bps
par Aloha.host[215] typename "\"Host\""
par Aloha.host[215] arrrate 0.3
par Aloha.host[215] packet_size 1B
attr unit B
par Aloha.host[215] x 173.476m
attr unit m
par Aloha.host[215] y 45.2592m
attr unit m
par Aloha.host[215] txrate 1000Bps
attr unit Bps
par Aloha.host[216] typename "\"Host\""
par Aloha.host[216] arrrate 0.3
par Aloha.host[216] packet_size 1B
attr unit B
par Aloha.host[216] x 158.466m
attr unit m
par Aloha.host[216] y 172.206m
attr unit m
par Aloha.host[216] txrate 1000Bps
attr unit Bps
par Aloha.host[217] typename "\"Host\""
par Aloha.host[217] arrrate 0.3
par Aloha.host[217] packet_size 1B
attr unit B
par Aloha.host[217] x 69.8003m
attr unit m
par Aloha.host[217] y 56.172m
attr unit m
par Aloha.host[217] txrate 1000Bps
attr unit Bps
par Aloha.host[218] typename "\"Host\""
par Aloha.host[218] arrrate 0.3
par Aloha.host[218] packet_size 1B
attr unit B
par Aloha.host[218] x 113.828m
attr unit m
par Aloha.host[218] y 25.0437m
attr unit m
par Aloha.host[218] txrate 1000Bps
attr unit Bps
par Aloha.host[219] typename "\"Host\""
par Aloha.host[219] arrrate 0.3
par Aloha.host[219] packet_size 1B
attr unit B
par Aloha.host[219] x 161.026m
attr unit m
par Aloha.host[219] y 14.8522m
attr unit m
par Aloha.host[219] txrate 1000Bps
attr unit Bps
par Aloha.host[220] typename "\"Host\""
par Aloha.host[220] arrrate 0.3
par Aloha.host[220] packet_size 1B
attr unit B
par Aloha.host[220] x 166.632m
attr unit m
par Aloha.host[220] y 65.1693m
attr unit m
par Aloha.host[220] txrate 1000Bps
attr unit Bps
par Aloha.host[221] typename "\"Host\""
par Aloha.host[221] arrrate 0.3
par Aloha.host[221] packet_size 1B
attr unit B
par Aloha.host[221] x 41.1587m
attr unit m
par Aloha.host[221] y 151.401m
attr unit m
par Aloha.host[221] txrate 1000Bps
attr unit Bps
par Aloha.host[222] typename "\"Host\""
par Aloha.host[222] arrrate 0.3
par Aloha.host[222] packet_size 1B
attr unit B
par Aloha.host[222] x 146.136m
attr unit m
par Aloha.host[222] y 81.8399m
attr unit m
par Aloha.host[222] txrate 1000Bps
attr unit Bps
par Aloha.host[223] typename "\"Host\""
par Aloha.host[223] arrrate 0.3
par Aloha.host[223] packet_size 1B
attr unit B
par Aloha.host[223] x 160.683m
attr unit m
par Aloha.host[223] y 151.3m
attr unit m
par Aloha.host[223] txrate 1000Bps
attr unit Bps
par Aloha.host[224] typename "\"Host\""
par Aloha.host[224] arrrate 0.3
par Aloha.host[224] packet_size 1B
attr unit B
par Aloha.host[224] x 8.62581m
attr unit m
par Aloha.host[224] y 54.0356m
attr unit m
par Aloha.host[224] txrate 1000Bps
attr unit Bps
par Aloha.host[225] typename "\"Host\""
par Aloha.host[225] arrrate 0.3
par Aloha.host[225] packet_size 1B
attr unit B
par Aloha.host[225] x 21.4375m
attr unit m
par Aloha.host[225] y 173.236m
attr unit m
par Aloha.host[225] txrate 1000Bps
attr unit Bps
par Aloha.host[226] typename "\"Host\""
par Aloha.host[226] arrrate 0.3
par Aloha.host[226] packet_size 1B
attr unit B
par Aloha.host[226] x 87.0167m
attr unit m
par Aloha.host[226] y 194.8m
attr unit m
par Aloha.host[226] txrate 1000Bps
attr unit Bps
par Aloha.host[227] typename "\"Host\""
par Aloha.host[227] arrrate 0.3
par Aloha.host[227] packet_size 1B
attr unit B
par Aloha.host[227] x 44.1762m
attr unit m
par Aloha.host[227] y 151.203m
attr unit m
par Aloha.host[227] txrate 1000Bps
attr unit Bps
par Aloha.host[228] typename "\"Host\""
par Aloha.host[228] arrrate 0.3
par Aloha.host[228] packet_size 1B
attr unit B
par Aloha.host[228] x 176.124m
attr unit m
par Aloha.host[228] y 189.485m
attr unit m
par Aloha.host[228] txrate 1000Bps
attr unit Bps
par Aloha.host[229] typename "\"Host\""
par Aloha.host[229] arrrate 0.3
par Aloha.host[229] packet_size 1B
attr unit B
par Aloha.host[229] x 143.938m
attr unit m
par Aloha.host[229] y 36.657m
attr unit m
par Aloha.host[229] txrate 1000Bps
attr unit Bps
par Aloha.host[230] typename "\"Host\""
par Aloha.host[230] arrrate 0.3
par Aloha.host[230] packet_size 1B
attr unit B
par Aloha.host[230] x 142.601m
attr unit m
par Aloha.host[230] y 197.461m
attr unit m
par Aloha.host[230] txrate 1000Bps
attr unit Bps
par Aloha.host[231] typename "\"Host\""
par Aloha.host[231] arrrate 0.3
par Aloha.host[231] packet_size 1B
attr unit B
par Aloha.host[231] x 153.972m
attr unit m
par Aloha.host[231] y 8.08396m
attr unit m
par Aloha.host[231] txrate 1000Bps
attr unit Bps
par Aloha.host[232] typename "\"Host\""
par Aloha.host[232] arrrate 0.3
par Aloha.host[232] packet_size 1B
attr unit B
par Aloha.host[232] x 66.1494m
attr unit m
par Aloha.host[232] y 79.0428m
attr unit m
par Aloha.host[232] txrate 1000Bps
attr unit Bps
par Aloha.host[233] typename "\"Host\""
par Aloha.host[233] arrrate 0.3
par Aloha.host[233] packet_size 1B
attr unit B
par Aloha.host[233] x 45.7221m
attr unit m
par Aloha.host[233] y 119.709m
attr unit m
par Aloha.host[233] txrate 1000Bps
attr unit Bps
par Aloha.host[234] typename "\"Host\""
par Aloha.host[234] arrrate 0.3
par Aloha.host[234] packet_size 1B
attr unit B
par Aloha.host[234] x 125.269m
attr unit m
par Aloha.host[234] y 30.0973m
attr unit m
par Aloha.host[234] txrate 1000Bps
attr unit Bps
par Aloha.host[235] typename "\"Host\""
par Aloha.host[235] arrrate 0.3
par Aloha.host[235] packet_size 1B
attr unit B
par Aloha.host[235] x 82.8958m
attr unit m
par Aloha.host[235] y 34.8886m
attr unit m
par Aloha.host[235] txrate 1000Bps
attr unit Bps
par Aloha.host[236] typename "\"Host\""
par Aloha.host[236] arrrate 0.3
par Aloha.host[236] packet_size 1B
attr unit B
par Aloha.host[236] x 187.356m
attr unit m
par Aloha.host[236] y 29.7353m
attr unit m
par Aloha.host[236] txrate 1000Bps
attr unit Bps
par Aloha.host[237] typename "\"Host\""
par Aloha.host[237] arrrate 0.3
par Aloha.host[237] packet_size 1B
attr unit B
par Aloha.host[237] x 128.49m
attr unit m
par Aloha.host[237] y 2.64741m
attr unit m
par Aloha.host[237] txrate 1000Bps
attr unit Bps
par Aloha.host[238] typename "\"Host\""
par Aloha.host[238] arrrate 0.3
par Aloha.host[238] packet_size 1B
attr unit B
par Aloha.host[238] x 77.3801m
attr unit m
par Aloha.host[238] y 0.308147m
attr unit m
par Aloha.host[238] txrate 1000Bps
attr unit Bps
par Aloha.host[239] typename "\"Host\""
par Aloha.host[239] arrrate 0.3
par Aloha.host[239] packet_size 1B
attr unit B
par Aloha.host[239] x 171.024m
attr unit m
par Aloha.host[239] y 8.25382m
attr unit m
par Aloha.host[239] txrate 1000Bps
attr unit Bps
par Aloha.host[240] typename "\"Host\""
par Aloha.host[240] arrrate 0.3
par Aloha.host[240] packet_size 1B
attr unit B
par Aloha.host[240] x 76.1585m
attr unit m
par Aloha.host[240] y 85.1278m
attr unit m
par Aloha.host[240] txrate 1000Bps
attr unit Bps
par Aloha.host[241] typename "\"Host\""
par Aloha.host[241] arrrate 0.3
par Aloha.host[241] packet_size 1B
attr unit B
par Aloha.host[241] x 35.662m
attr unit m
par Aloha.host[241] y 192.879m
attr unit m
par Aloha.host[241] txrate 1000Bps
attr unit Bps
par Aloha.host[242] typename "\"Host\""
par Aloha.host[242] arrrate 0.3
par Aloha.host[242] packet_size 1B
attr unit B
par Aloha.host[242] x 156.332m
attr unit m
par Aloha.host[242] y 36.5373m
attr unit m
par Aloha.host[242] txrate 1000Bps
attr unit Bps
par Aloha.host[243] typename "\"Host\""
par Aloha.host[243] arrrate 0.3
par Aloha.host[243] packet_size 1B
attr unit B
par Aloha.host[243] x 94.4417m
attr unit m
par Aloha.host[243] y 149.008m
attr unit m
par Aloha.host[243] txrate 1000Bps
attr unit Bps
par Aloha.host[244] typename "\"Host\""
par Aloha.host[244] arrrate 0.3
par Aloha.host[244] packet_size 1B
attr unit B
par Aloha.host[244] x 51.8961m
attr unit m
par Aloha.host[244] y 67.9327m
attr unit m
par Aloha.host[244] txrate 1000Bps
attr unit Bps
par Aloha.host[245] typename "\"Host\""
par Aloha.host[245] arrrate 0.3
par Aloha.host[245] packet_size 1B
attr unit B
par Aloha.host[245] x 138.48m
attr unit m
par Aloha.host[245] y 130.218m
attr unit m
par Aloha.host[245] txrate 1000Bps
attr unit Bps
par Aloha.host[246] typename "\"Host\""
par Aloha.host[246] arrrate 0.3
par Aloha.host[246] packet_size 1B
attr unit B
par Aloha.host[246] x 196.097m
attr unit m
par Aloha.host[246] y 128.223m
attr unit m
par Aloha.host[246] txrate 1000Bps
attr unit Bps
par Aloha.host[247] typename "\"Host\""
par Aloha.host[247] arrrate 0.3
par Aloha.host[247] packet_size 1B
attr unit B
par Aloha.host[247] x 49.2507m
attr unit m
par Aloha.host[247] y 44.6205m
attr unit m
par Aloha.host[247] txrate 1000Bps
attr unit Bps
par Aloha.host[248] typename "\"Host\""
par Aloha.host[248] arrrate 0.3
par Aloha.host[248] packet_size 1B
attr unit B
par Aloha.host[248] x 158.049m
attr unit m
par Aloha.host[248] y 150.051m
attr unit m
par Aloha.host[248] txrate 1000Bps
attr unit Bps
par Aloha.host[249] typename "\"Host\""
par Aloha.host[249] arrrate 0.3
par Aloha.host[249] packet_size 1B
attr unit B
par Aloha.host[249] x 152.467m
attr unit m
par Aloha.host[249] y 90.8157m
attr unit m
par Aloha.host[249] txrate 1000Bps
attr unit Bps
par Aloha.host[250] typename "\"Host\""
par Aloha.host[250] arrrate 0.3
par Aloha.host[250] packet_size 1B
attr unit B
par Aloha.host[250] x 24.008m
attr unit m
par Aloha.host[250] y 35.1289m
attr unit m
par Aloha.host[250] txrate 1000Bps
attr unit Bps
par Aloha.host[251] typename "\"Host\""
par Aloha.host[251] arrrate 0.3
par Aloha.host[251] packet_size 1B
attr unit B
par Aloha.host[251] x 167.781m
attr unit m
par Aloha.host[251] y 51.0028m
attr unit m
par Aloha.host[251] txrate 1000Bps
attr unit Bps
par Aloha.host[252] typename "\"Host\""
par Aloha.host[252] arrrate 0.3
par Aloha.host[252] packet_size 1B
attr unit B
par Aloha.host[252] x 92.3478m
attr unit m
par Aloha.host[252] y 145.126m
attr unit m
par Aloha.host[252] txrate 1000Bps
attr unit Bps
par Aloha.host[253] typename "\"Host\""
par Aloha.host[253] arrrate 0.3
par Aloha.host[253] packet_size 1B
attr unit B
par Aloha.host[253] x 25.1563m
attr unit m
par Aloha.host[253] y 78.1949m
attr unit m
par Aloha.host[253] txrate 1000Bps
attr unit Bps
par Aloha.host[254] typename "\"Host\""
par Aloha.host[254] arrrate 0.3
par Aloha.host[254] packet_size 1B
attr unit B
par Aloha.host[254] x 107.269m
attr unit m
par Aloha.host[254] y 77.3167m
attr unit m
par Aloha.host[254] txrate 1000Bps
attr unit Bps
par Aloha.host[255] typename "\"Host\""
par Aloha.host[255] arrrate 0.3
par Aloha.host[255] packet_size 1B
attr unit B
par Aloha.host[255] x 59.3026m
attr unit m
par Aloha.host[255] y 146.937m
attr unit m
par Aloha.host[255] txrate 1000Bps
attr unit Bps
par Aloha.host[256] typename "\"Host\""
par Aloha.host[256] arrrate 0.3
par Aloha.host[256] packet_size 1B
attr unit B
par Aloha.host[256] x 35.1448m
attr unit m
par Aloha.host[256] y 194.71m
attr unit m
par Aloha.host[256] txrate 1000Bps
attr unit Bps
par Aloha.host[257] typename "\"Host\""
par Aloha.host[257] arrrate 0.3
par Aloha.host[257] packet_size 1B
attr unit B
par Aloha.host[257] x 15.8476m
attr unit m
par Aloha.host[257] y 48.4675m
attr unit m
par Aloha.host[257] txrate 1000Bps
attr unit Bps
par Aloha.host[258] typename "\"Host\""
par Aloha.host[258] arrrate 0.3
par Aloha.host[258] packet_size 1B
attr unit B
par Aloha.host[258] x 39.7798m
attr unit m
par Aloha.host[258] y 41.3238m
attr unit m
par Aloha.host[258] txrate 1000Bps
attr unit Bps
par Aloha.host[259] typename "\"Host\""
par Aloha.host[259] arrrate 0.3
par Aloha.host[259] packet_size 1B
attr unit B
par Aloha.host[259] x 85.9177m
attr unit m
par Aloha.host[259] y 84.8819m
attr unit m
par Aloha.host[259] txrate 1000Bps
attr unit Bps
par Aloha.host[260] typename "\"Host\""
par Aloha.host[260] arrrate 0.3
par Aloha.host[260] packet_size 1B
attr unit B
par Aloha.host[260] x 128.362m
attr unit m
par Aloha.host[260] y 143.587m
attr unit m
par Aloha.host[260] txrate 1000Bps
attr unit Bps
par Aloha.host[261] typename "\"Host\""
par Aloha.host[261] arrrate 0.3
par Aloha.host[261] packet_size 1B
attr unit B
par Aloha.host[261] x 17.4758m
attr unit m
par Aloha.host[261] y 170.334m
attr unit m
par Aloha.host[261] txrate 1000Bps
attr unit Bps
par Aloha.host[262] typename "\"Host\""
par Aloha.host[262] arrrate 0.3
par Aloha.host[262] packet_size 1B
attr unit B
par Aloha.host[262] x 143.146m
attr unit m
par Aloha.host[262] y 70.1447m
attr unit m
par Aloha.host[262] txrate 1000Bps
attr unit Bps
par Aloha.host[263] typename "\"Host\""
par Aloha.host[263] arrrate 0.3
par Aloha.host[263] packet_size 1B
attr unit B
par Aloha.host[263] x 20.349m
attr unit m
par Aloha.host[263] y 72.6589m
attr unit m
par Aloha.host[263] txrate 1000Bps
attr unit Bps
par Aloha.host[264] typename "\"Host\""
par Aloha.host[264] arrrate 0.3
par Aloha.host[264] packet_size 1B
attr unit B
par Aloha.host[264] x 35.1198m
attr unit m
par Aloha.host[264] y 67.2586m
attr unit m
par Aloha.host[264] txrate 1000Bps
attr unit Bps
par Aloha.host[265] typename "\"Host\""
par Aloha.host[265] arrrate 0.3
par Aloha.host[265] packet_size 1B
attr unit B
par Aloha.host[265] x 142.664m
attr unit m
par Aloha.host[265] y 81.2357m
attr unit m
par Aloha.host[265] txrate 1000Bps
attr unit Bps
par Aloha.host[266] typename "\"Host\""
par Aloha.host[266] arrrate 0.3
par Aloha.host[266] packet_size 1B
attr unit B
par Aloha.host[266] x 177.053m
attr unit m
par Aloha.host[266] y 12.0615m
attr unit m
par Aloha.host[266] txrate 1000Bps
attr unit Bps
par Aloha.host[267] typename "\"Host\""
par Aloha.host[267] arrrate 0.3
par Aloha.host[267] packet_size 1B
attr unit B
par Aloha.host[267] x 196.628m
attr unit m
par Aloha.host[267] y 25.769m
attr unit m
par Aloha.host[267] txrate 1000Bps
attr unit Bps
par Aloha.host[268] typename "\"Host\""
par Aloha.host[268] arrrate 0.3
par Aloha.host[268] packet_size 1B
attr unit B
par Aloha.host[268] x 130.581m
attr unit m
par Aloha.host[268] y 103.705m
attr unit m
par Aloha.host[268] txrate 1000Bps
attr unit Bps
par Aloha.host[269] typename "\"Host\""
par Aloha.host[269] arrrate 0.3
par Aloha.host[269] packet_size 1B
attr unit B
par Aloha.host[269] x 95.5473m
attr unit m
par Aloha.host[269] y 176.704m
attr unit m
par Aloha.host[269] txrate 1000Bps
attr unit Bps
par Aloha.host[270] typename "\"Host\""
par Aloha.host[270] arrrate 0.3
par Aloha.host[270] packet_size 1B
attr unit B
par Aloha.host[270] x 17.5575m
attr unit m
par Aloha.host[270] y 32.6679m
attr unit m
par Aloha.host[270] txrate 1000Bps
attr unit Bps
par Aloha.host[271] typename "\"Host\""
par Aloha.host[271] arrrate 0.3
par Aloha.host[271] packet_size 1B
attr unit B
par Aloha.host[271] x 111.79m
attr unit m
par Aloha.host[271] y 145.613m
attr unit m
par Aloha.host[271] txrate 1000Bps
attr unit Bps
par Aloha.host[272] typename "\"Host\""
par Aloha.host[272] arrrate 0.3
par Aloha.host[272] packet_size 1B
attr unit B
par Aloha.host[272] x 36.23m
attr unit m
par Aloha.host[272] y 43.5815m
attr unit m
par Aloha.host[272] txrate 1000Bps
attr unit Bps
par Aloha.host[273] typename "\"Host\""
par Aloha.host[273] arrrate 0.3
par Aloha.host[273] packet_size 1B
attr unit B
par Aloha.host[273] x 102.88m
attr unit m
par Aloha.host[273] y 166.993m
attr unit m
par Aloha.host[273] txrate 1000Bps
attr unit Bps
par Aloha.host[274] typename "\"Host\""
par Aloha.host[274] arrrate 0.3
par Aloha.host[274] packet_size 1B
attr unit B
par Aloha.host[274] x 121.786m
attr unit m
par Aloha.host[274] y 20.1351m
attr unit m
par Aloha.host[274] txrate 1000Bps
attr unit Bps
par Aloha.host[275] typename "\"Host\""
par Aloha.host[275] arrrate 0.3
par Aloha.host[275] packet_size 1B
attr unit B
par Aloha.host[275] x 166.642m
attr unit m
par Aloha.host[275] y 73.0957m
attr unit m
par Aloha.host[275] txrate 1000Bps
attr unit Bps
par Aloha.host[276] typename "\"Host\""
par Aloha.host[276] arrrate 0.3
par Aloha.host[276] packet_size 1B
attr unit B
par Aloha.host[276] x 64.7501m
attr unit m
par Aloha.host[276] y 117.819m
attr unit m
par Aloha.host[276] txrate 1000Bps
attr unit Bps
par Aloha.host[277] typename "\"Host\""
par Aloha.host[277] arrrate 0.3
par Aloha.host[277] packet_size 1B
attr unit B
par Aloha.host[277] x 197.772m
attr unit m
par Aloha.host[277] y 94.139m
attr unit m
par Aloha.host[277] txrate 1000Bps
attr unit Bps
par Aloha.host[278] typename "\"Host\""
par Aloha.host[278] arrrate 0.3
par Aloha.host[278] packet_size 1B
attr unit B
par Aloha.host[278] x 198.99m
attr unit m
par Aloha.host[278] y 73.1773m
attr unit m
par Aloha.host[278] txrate 1000Bps
attr unit Bps
par Aloha.host[279] typename "\"Host\""
par Aloha.host[279] arrrate 0.3
par Aloha.host[279] packet_size 1B
attr unit B
par Aloha.host[279] x 165.23m
attr unit m
par Aloha.host[279] y 194.11m
attr unit m
par Aloha.host[279] txrate 1000Bps
attr unit Bps
par Aloha.host[280] typename "\"Host\""
par Aloha.host[280] arrrate 0.3
par Aloha.host[280] packet_size 1B
attr unit B
par Aloha.host[280] x 138.831m
attr unit m
par Aloha.host[280] y 106.477m
attr unit m
par Aloha.host[280] txrate 1000Bps
attr unit Bps
par Aloha.host[281] typename "\"Host\""
par Aloha.host[281] arrrate 0.3
par Aloha.host[281] packet_size 1B
attr unit B
par Aloha.host[281] x 146.734m
attr unit m
par Aloha.host[281] y 80.559m
attr unit m
par Aloha.host[281] txrate 1000Bps
attr unit Bps
par Aloha.host[282] typename "\"Host\""
par Aloha.host[282] arrrate 0.3
par Aloha.host[282] packet_size 1B
attr unit B
par Aloha.host[282] x 175.054m
attr unit m
par Aloha.host[282] y 8.24919m
attr unit m
par Aloha.host[282] txrate 1000Bps
attr unit Bps
par Aloha.host[283] typename "\"Host\""
par Aloha.host[283] arrrate 0.3
par Aloha.host[283] packet_size 1B
attr unit B
par Aloha.host[283] x 190.302m
attr unit m
par Aloha.host[283] y 55.9814m
attr unit m
par Aloha.host[283] txrate 1000Bps
attr unit Bps
par Aloha.host[284] typename "\"Host\""
par Aloha.host[284] arrrate 0.3
par Aloha.host[284] packet_size 1B
attr unit B
par Aloha.host[284] x 170.453m
attr unit m
par Aloha.host[284] y 133.311m
attr unit m
par Aloha.host[284] txrate 1000Bps
attr unit Bps
par Aloha.host[285] typename "\"Host\""
par Aloha.host[285] arrrate 0.3
par Aloha.host[285] packet_size 1B
attr unit B
par Aloha.host[285] x 128.188m
attr unit m
par Aloha.host[285] y 3.70592m
attr unit m
par Aloha.host[285] txrate 1000Bps
attr unit Bps
par Aloha.host[286] typename "\"Host\""
par Aloha.host[286] arrrate 0.3
par Aloha.host[286] packet_size 1B
attr unit B
par Aloha.host[286] x 14.6997m
attr unit m
par Aloha.host[286] y 41.6083m
attr unit m
par Aloha.host[286] txrate 1000Bps
attr unit Bps
par Aloha.host[287] typename "\"Host\""
par Aloha.host[287] arrrate 0.3
par Aloha.host[287] packet_size 1B
attr unit B
par Aloha.host[287] x 124.677m
attr unit m
par Aloha.host[287] y 4.54332m
attr unit m
par Aloha.host[287] txrate 1000Bps
attr unit Bps
par Aloha.host[288] typename "\"Host\""
par Aloha.host[288] arrrate 0.3
par Aloha.host[288] packet_size 1B
attr unit B
par Aloha.host[288] x 70.6428m
attr unit m
par Aloha.host[288] y 10.698m
attr unit m
par Aloha.host[288] txrate 1000Bps
attr unit Bps
par Aloha.host[289] typename "\"Host\""
par Aloha.host[289] arrrate 0.3
par Aloha.host[289] packet_size 1B
attr unit B
par Aloha.host[289] x 32.9557m
attr unit m
par Aloha.host[289] y 86.4266m
attr unit m
par Aloha.host[289] txrate 1000Bps
attr unit Bps
par Aloha.host[290] typename "\"Host\""
par Aloha.host[290] arrrate 0.3
par Aloha.host[290] packet_size 1B
attr unit B
par Aloha.host[290] x 178.633m
attr unit m
par Aloha.host[290] y 57.4905m
attr unit m
par Aloha.host[290] txrate 1000Bps
attr unit Bps
par Aloha.host[291] typename "\"Host\""
par Aloha.host[291] arrrate 0.3
par Aloha.host[291] packet_size 1B
attr unit B
par Aloha.host[291] x 164.978m
attr unit m
par Aloha.host[291] y 47.2774m
attr unit m
par Aloha.host[291] txrate 1000Bps
attr unit Bps
par Aloha.host[292] typename "\"Host\""
par Aloha.host[292] arrrate 0.3
par Aloha.host[292] packet_size 1B
attr unit B
par Aloha.host[292] x 105.328m
attr unit m
par Aloha.host[292] y 145.406m
attr unit m
par Aloha.host[292] txrate 1000Bps
attr unit Bps
par Aloha.host[293] typename "\"Host\""
par Aloha.host[293] arrrate 0.3
par Aloha.host[293] packet_size 1B
attr unit B
par Aloha.host[293] x 92.6899m
attr unit m
par Aloha.host[293] y 40.8445m
attr unit m
par Aloha.host[293] txrate 1000Bps
attr unit Bps
par Aloha.host[294] typename "\"Host\""
par Aloha.host[294] arrrate 0.3
par Aloha.host[294] packet_size 1B
attr unit B
par Aloha.host[294] x 97.8603m
attr unit m
par Aloha.host[294] y 39.9792m
attr unit m
par Aloha.host[294] txrate 1000Bps
attr unit Bps
par Aloha.host[295] typename "\"Host\""
par Aloha.host[295] arrrate 0.3
par Aloha.host[295] packet_size 1B
attr unit B
par Aloha.host[295] x 52.144m
attr unit m
par Aloha.host[295] y 138.172m
attr unit m
par Aloha.host[295] txrate 1000Bps
attr unit Bps
par Aloha.host[296] typename "\"Host\""
par Aloha.host[296] arrrate 0.3
par Aloha.host[296] packet_size 1B
attr unit B
par Aloha.host[296] x 80.5276m
attr unit m
par Aloha.host[296] y 49.9139m
attr unit m
par Aloha.host[296] txrate 1000Bps
attr unit Bps
par Aloha.host[297] typename "\"Host\""
par Aloha.host[297] arrrate 0.3
par Aloha.host[297] packet_size 1B
attr unit B
par Aloha.host[297] x 87.334m
attr unit m
par Aloha.host[297] y 28.599m
attr unit m
par Aloha.host[297] txrate 1000Bps
attr unit Bps
par Aloha.host[298] typename "\"Host\""
par Aloha.host[298] arrrate 0.3
par Aloha.host[298] packet_size 1B
attr unit B
par Aloha.host[298] x 3.01123m
attr unit m
par Aloha.host[298] y 26.2558m
attr unit m
par Aloha.host[298] txrate 1000Bps
attr unit Bps
par Aloha.host[299] typename "\"Host\""
par Aloha.host[299] arrrate 0.3
par Aloha.host[299] packet_size 1B
attr unit B
par Aloha.host[299] x 178.581m
attr unit m
par Aloha.host[299] y 188.932m
attr unit m
par Aloha.host[299] txrate 1000Bps
attr unit Bps
par Aloha.host[300] typename "\"Host\""
par Aloha.host[300] arrrate 0.3
par Aloha.host[300] packet_size 1B
attr unit B
par Aloha.host[300] x 5.82986m
attr unit m
par Aloha.host[300] y 42.8486m
attr unit m
par Aloha.host[300] txrate 1000Bps
attr unit Bps
par Aloha.host[301] typename "\"Host\""
par Aloha.host[301] arrrate 0.3
par Aloha.host[301] packet_size 1B
attr unit B
par Aloha.host[301] x 74.5786m
attr unit m
par Aloha.host[301] y 135.884m
attr unit m
par Aloha.host[301] txrate 1000Bps
attr unit Bps
par Aloha.host[302] typename "\"Host\""
par Aloha.host[302] arrrate 0.3
par Aloha.host[302] packet_size 1B
attr unit B
par Aloha.host[302] x 19.1747m
attr unit m
par Aloha.host[302] y 94.7786m
attr unit m
par Aloha.host[302] txrate 1000Bps
attr unit Bps
par Aloha.host[303] typename "\"Host\""
par Aloha.host[303] arrrate 0.3
par Aloha.host[303] packet_size 1B
attr unit B
par Aloha.host[303] x 39.3929m
attr unit m
par Aloha.host[303] y 114.889m
attr unit m
par Aloha.host[303] txrate 1000Bps
attr unit Bps
par Aloha.host[304] typename "\"Host\""
par Aloha.host[304] arrrate 0.3
par Aloha.host[304] packet_size 1B
attr unit B
par Aloha.host[304] x 188.484m
attr unit m
par Aloha.host[304] y 83.2626m
attr unit m
par Aloha.host[304] txrate 1000Bps
attr unit Bps
par Aloha.host[305] typename "\"Host\""
par Aloha.host[305] arrrate 0.3
par Aloha.host[305] packet_size 1B
attr unit B
par Aloha.host[305] x 74.2542m
attr unit m
par Aloha.host[305] y 26.6326m
attr unit m
par Aloha.host[305] txrate 1000Bps
attr unit Bps
par Aloha.host[306] typename "\"Host\""
par Aloha.host[306] arrrate 0.3
par Aloha.host[306] packet_size 1B
attr unit B
par Aloha.host[306] x 145.8m
attr unit m
par Aloha.host[306] y 66.1314m
attr unit m
par Aloha.host[306] txrate 1000Bps
attr unit Bps
par Aloha.host[307] typename "\"Host\""
par Aloha.host[307] arrrate 0.3
par Aloha.host[307] packet_size 1B
attr unit B
par Aloha.host[307] x 25.232m
attr unit m
par Aloha.host[307] y 28.8841m
attr unit m
par Aloha.host[307] txrate 1000Bps
attr unit Bps
par Aloha.host[308] typename "\"Host\""
par Aloha.host[308] arrrate 0.3
par Aloha.host[308] packet_size 1B
attr unit B
par Aloha.host[308] x 50.2566m
attr unit m
par Aloha.host[308] y 167.349m
attr unit m
par Aloha.host[308] txrate 1000Bps
attr unit Bps
par Aloha.host[309] typename "\"Host\""
par Aloha.host[309] arrrate 0.3
par Aloha.host[309] packet_size 1B
attr unit B
par Aloha.host[309] x 176.247m
attr unit m
par Aloha.host[309] y 82.6033m
attr unit m
par Aloha.host[309] txrate 1000Bps
attr unit Bps
par Aloha.host[310] typename "\"Host\""
par Aloha.host[310] arrrate 0.3
par Aloha.host[310] packet_size 1B
attr unit B
par Aloha.host[310] x 180.659m
attr unit m
par Aloha.host[310] y 5.95635m
attr unit m
par Aloha.host[310] txrate 1000Bps
attr unit Bps
par Aloha.host[311] typename "\"Host\""
par Aloha.host[311] arrrate 0.3
par Aloha.host[311] packet_size 1B
attr unit B
par Aloha.host[311] x 57.5271m
attr unit m
par Aloha.host[311] y 170.086m
attr unit m
par Aloha.host[311] txrate 1000Bps
attr unit Bps
par Aloha.host[312] typename "\"Host\""
par Aloha.host[312] arrrate 0.3
par Aloha.host[312] packet_size 1B
attr unit B
par Aloha.host[312] x 193.423m
attr unit m
par Aloha.host[312] y 46.1091m
attr unit m
par Aloha.host[312] txrate 1000Bps
attr unit Bps
par Aloha.host[313] typename "\"Host\""
par Aloha.host[313] arrrate 0.3
par Aloha.host[313] packet_size 1B
attr unit B
par Aloha.host[313] x 133.62m
attr unit m
par Aloha.host[313] y 181.185m
attr unit m
par Aloha.host[313] txrate 1000Bps
attr unit Bps
par Aloha.host[314] typename "\"Host\""
par Aloha.host[314] arrrate 0.3
par Aloha.host[314] packet_size 1B
attr unit B
par Aloha.host[314] x 100.601m
attr unit m
par Aloha.host[314] y 62.4776m
attr unit m
par Aloha.host[314] txrate 1000Bps
attr unit Bps
par Aloha.host[315] typename "\"Host\""
[...]
par Aloha.host[922] packet_size 1B
attr unit B
par Aloha.host[922] x 194.407m
attr unit m
par Aloha.host[922] y 184.076m
attr unit m
par Aloha.host[922] txrate 1000Bps
attr unit Bps
par Aloha.host[923] typename "\"Host\""
par Aloha.host[923] arrrate 0.3
par Aloha.host[923] packet_size 1B
attr unit B
par Aloha.host[923] x 101.978m
attr unit m
par Aloha.host[923] y 83.4259m
attr unit m
par Aloha.host[923] txrate 1000Bps
attr unit Bps
par Aloha.host[924] typename "\"Host\""
par Aloha.host[924] arrrate 0.3
par Aloha.host[924] packet_size 1B
attr unit B
par Aloha.host[924] x 34.361m
attr unit m
par Aloha.host[924] y 18.3121m
attr unit m
par Aloha.host[924] txrate 1000Bps
attr unit Bps
par Aloha.host[925] typename "\"Host\""
par Aloha.host[925] arrrate 0.3
par Aloha.host[925] packet_size 1B
attr unit B
par Aloha.host[925] x 95.9208m
attr unit m
par Aloha.host[925] y 131.447m
attr unit m
par Aloha.host[925] txrate 1000Bps
attr unit Bps
par Aloha.host[926] typename "\"Host\""
par Aloha.host[926] arrrate 0.3
par Aloha.host[926] packet_size 1B
attr unit B
par Aloha.host[926] x 79.8364m
attr unit m
par Aloha.host[926] y 53.0038m
attr unit m
par Aloha.host[926] txrate 1000Bps
attr unit Bps
par Aloha.host[927] typename "\"Host\""
par Aloha.host[927] arrrate 0.3
par Aloha.host[927] packet_size 1B
attr unit B
par Aloha.host[927] x 42.776m
attr unit m
par Aloha.host[927] y 44.5414m
attr unit m
par Aloha.host[927] txrate 1000Bps
attr unit Bps
par Aloha.host[928] typename "\"Host\""
par Aloha.host[928] arrrate 0.3
par Aloha.host[928] packet_size 1B
attr unit B
par Aloha.host[928] x 126.587m
attr unit m
par Aloha.host[928] y 123.307m
attr unit m
par Aloha.host[928] txrate 1000Bps
attr unit Bps
par Aloha.host[929] typename "\"Host\""
par Aloha.host[929] arrrate 0.3
par Aloha.host[929] packet_size 1B
attr unit B
par Aloha.host[929] x 105.219m
attr unit m
par Aloha.host[929] y 113.029m
attr unit m
par Aloha.host[929] txrate 1000Bps
attr unit Bps
par Aloha.host[930] typename "\"Host\""
par Aloha.host[930] arrrate 0.3
par Aloha.host[930] packet_size 1B
attr unit B
par Aloha.host[930] x 54.8235m
attr unit m
par Aloha.host[930] y 94.3708m
attr unit m
par Aloha.host[930] txrate 1000Bps
attr unit Bps
par Aloha.host[931] typename "\"Host\""
par Aloha.host[931] arrrate 0.3
par Aloha.host[931] packet_size 1B
attr unit B
par Aloha.host[931] x 160.554m
attr unit m
par Aloha.host[931] y 125.176m
attr unit m
par Aloha.host[931] txrate 1000Bps
attr unit Bps
par Aloha.host[932] typename "\"Host\""
par Aloha.host[932] arrrate 0.3
par Aloha.host[932] packet_size 1B
attr unit B
par Aloha.host[932] x 107.762m
attr unit m
par Aloha.host[932] y 61.6607m
attr unit m
par Aloha.host[932] txrate 1000Bps
attr unit Bps
par Aloha.host[933] typename "\"Host\""
par Aloha.host[933] arrrate 0.3
par Aloha.host[933] packet_size 1B
attr unit B
par Aloha.host[933] x 67.8871m
attr unit m
par Aloha.host[933] y 74.8318m
attr unit m
par Aloha.host[933] txrate 1000Bps
attr unit Bps
par Aloha.host[934] typename "\"Host\""
par Aloha.host[934] arrrate 0.3
par Aloha.host[934] packet_size 1B
attr unit B
par Aloha.host[934] x 31.5627m
attr unit m
par Aloha.host[934] y 156.959m
attr unit m
par Aloha.host[934] txrate 1000Bps
attr unit Bps
par Aloha.host[935] typename "\"Host\""
par Aloha.host[935] arrrate 0.3
par Aloha.host[935] packet_size 1B
attr unit B
par Aloha.host[935] x 99.8915m
attr unit m
par Aloha.host[935] y 173.878m
attr unit m
par Aloha.host[935] txrate 1000Bps
attr unit Bps
par Aloha.host[936] typename "\"Host\""
par Aloha.host[936] arrrate 0.3
par Aloha.host[936] packet_size 1B
attr unit B
par Aloha.host[936] x 30.7927m
attr unit m
par Aloha.host[936] y 90.7861m
attr unit m
par Aloha.host[936] txrate 1000Bps
attr unit Bps
par Aloha.host[937] typename "\"Host\""
par Aloha.host[937] arrrate 0.3
par Aloha.host[937] packet_size 1B
attr unit B
par Aloha.host[937] x 183.115m
attr unit m
par Aloha.host[937] y 170.449m
attr unit m
par Aloha.host[937] txrate 1000Bps
attr unit Bps
par Aloha.host[938] typename "\"Host\""
par Aloha.host[938] arrrate 0.3
par Aloha.host[938] packet_size 1B
attr unit B
par Aloha.host[938] x 98.9842m
attr unit m
par Aloha.host[938] y 93.3274m
attr unit m
par Aloha.host[938] txrate 1000Bps
attr unit Bps
par Aloha.host[939] typename "\"Host\""
par Aloha.host[939] arrrate 0.3
par Aloha.host[939] packet_size 1B
attr unit B
par Aloha.host[939] x 182.546m
attr unit m
par Aloha.host[939] y 126.12m
attr unit m
par Aloha.host[939] txrate 1000Bps
attr unit Bps
par Aloha.host[940] typename "\"Host\""
par Aloha.host[940] arrrate 0.3
par Aloha.host[940] packet_size 1B
attr unit B
par Aloha.host[940] x 63.9752m
attr unit m
par Aloha.host[940] y 127.449m
attr unit m
par Aloha.host[940] txrate 1000Bps
attr unit Bps
par Aloha.host[941] typename "\"Host\""
par Aloha.host[941] arrrate 0.3
par Aloha.host[941] packet_size 1B
attr unit B
par Aloha.host[941] x 92.051m
attr unit m
par Aloha.host[941] y 120.845m
attr unit m
par Aloha.host[941] txrate 1000Bps
attr unit Bps
par Aloha.host[942] typename "\"Host\""
par Aloha.host[942] arrrate 0.3
par Aloha.host[942] packet_size 1B
attr unit B
par Aloha.host[942] x 104.273m
attr unit m
par Aloha.host[942] y 59.8513m
attr unit m
par Aloha.host[942] txrate 1000Bps
attr unit Bps
par Aloha.host[943] typename "\"Host\""
par Aloha.host[943] arrrate 0.3
par Aloha.host[943] packet_size 1B
attr unit B
par Aloha.host[943] x 179.669m
attr unit m
par Aloha.host[943] y 181.173m
attr unit m
par Aloha.host[943] txrate 1000Bps
attr unit Bps
par Aloha.host[944] typename "\"Host\""
par Aloha.host[944] arrrate 0.3
par Aloha.host[944] packet_size 1B
attr unit B
par Aloha.host[944] x 25.3897m
attr unit m
par Aloha.host[944] y 76.2897m
attr unit m
par Aloha.host[944] txrate 1000Bps
attr unit Bps
par Aloha.host[945] typename "\"Host\""
par Aloha.host[945] arrrate 0.3
par Aloha.host[945] packet_size 1B
attr unit B
par Aloha.host[945] x 79.7249m
attr unit m
par Aloha.host[945] y 169.435m
attr unit m
par Aloha.host[945] txrate 1000Bps
attr unit Bps
par Aloha.host[946] typename "\"Host\""
par Aloha.host[946] arrrate 0.3
par Aloha.host[946] packet_size 1B
attr unit B
par Aloha.host[946] x 16.874m
attr unit m
par Aloha.host[946] y 107.233m
attr unit m
par Aloha.host[946] txrate 1000Bps
attr unit Bps
par Aloha.host[947] typename "\"Host\""
par Aloha.host[947] arrrate 0.3
par Aloha.host[947] packet_size 1B
attr unit B
par Aloha.host[947] x 182.867m
attr unit m
par Aloha.host[947] y 120.157m
attr unit m
par Aloha.host[947] txrate 1000Bps
attr unit Bps
par Aloha.host[948] typename "\"Host\""
par Aloha.host[948] arrrate 0.3
par Aloha.host[948] packet_size 1B
attr unit B
par Aloha.host[948] x 163.311m
attr unit m
par Aloha.host[948] y 170.61m
attr unit m
par Aloha.host[948] txrate 1000Bps
attr unit Bps
par Aloha.host[949] typename "\"Host\""
par Aloha.host[949] arrrate 0.3
par Aloha.host[949] packet_size 1B
attr unit B
par Aloha.host[949] x 80.1126m
attr unit m
par Aloha.host[949] y 169.404m
attr unit m
par Aloha.host[949] txrate 1000Bps
attr unit Bps
par Aloha.host[950] typename "\"Host\""
par Aloha.host[950] arrrate 0.3
par Aloha.host[950] packet_size 1B
attr unit B
par Aloha.host[950] x 133.768m
attr unit m
par Aloha.host[950] y 135.372m
attr unit m
par Aloha.host[950] txrate 1000Bps
attr unit Bps
par Aloha.host[951] typename "\"Host\""
par Aloha.host[951] arrrate 0.3
par Aloha.host[951] packet_size 1B
attr unit B
par Aloha.host[951] x 108.608m
attr unit m
par Aloha.host[951] y 2.84825m
attr unit m
par Aloha.host[951] txrate 1000Bps
attr unit Bps
par Aloha.host[952] typename "\"Host\""
par Aloha.host[952] arrrate 0.3
par Aloha.host[952] packet_size 1B
attr unit B
par Aloha.host[952] x 122.357m
attr unit m
par Aloha.host[952] y 91.2491m
attr unit m
par Aloha.host[952] txrate 1000Bps
attr unit Bps
par Aloha.host[953] typename "\"Host\""
par Aloha.host[953] arrrate 0.3
par Aloha.host[953] packet_size 1B
attr unit B
par Aloha.host[953] x 170.437m
attr unit m
par Aloha.host[953] y 121.042m
attr unit m
par Aloha.host[953] txrate 1000Bps
attr unit Bps
par Aloha.host[954] typename "\"Host\""
par Aloha.host[954] arrrate 0.3
par Aloha.host[954] packet_size 1B
attr unit B
par Aloha.host[954] x 197.296m
attr unit m
par Aloha.host[954] y 40.6172m
attr unit m
par Aloha.host[954] txrate 1000Bps
attr unit Bps
par Aloha.host[955] typename "\"Host\""
par Aloha.host[955] arrrate 0.3
par Aloha.host[955] packet_size 1B
attr unit B
par Aloha.host[955] x 16.178m
attr unit m
par Aloha.host[955] y 124.9m
attr unit m
par Aloha.host[955] txrate 1000Bps
attr unit Bps
par Aloha.host[956] typename "\"Host\""
par Aloha.host[956] arrrate 0.3
par Aloha.host[956] packet_size 1B
attr unit B
par Aloha.host[956] x 113.578m
attr unit m
par Aloha.host[956] y 199.778m
attr unit m
par Aloha.host[956] txrate 1000Bps
attr unit Bps
par Aloha.host[957] typename "\"Host\""
par Aloha.host[957] arrrate 0.3
par Aloha.host[957] packet_size 1B
attr unit B
par Aloha.host[957] x 180.651m
attr unit m
par Aloha.host[957] y 16.0152m
attr unit m
par Aloha.host[957] txrate 1000Bps
attr unit Bps
par Aloha.host[958] typename "\"Host\""
par Aloha.host[958] arrrate 0.3
par Aloha.host[958] packet_size 1B
attr unit B
par Aloha.host[958] x 79.3041m
attr unit m
par Aloha.host[958] y 86.8895m
attr unit m
par Aloha.host[958] txrate 1000Bps
attr unit Bps
par Aloha.host[959] typename "\"Host\""
par Aloha.host[959] arrrate 0.3
par Aloha.host[959] packet_size 1B
attr unit B
par Aloha.host[959] x 50.9253m
attr unit m
par Aloha.host[959] y 138.344m
attr unit m
par Aloha.host[959] txrate 1000Bps
attr unit Bps
par Aloha.host[960] typename "\"Host\""
par Aloha.host[960] arrrate 0.3
par Aloha.host[960] packet_size 1B
attr unit B
par Aloha.host[960] x 26.2363m
attr unit m
par Aloha.host[960] y 55.322m
attr unit m
par Aloha.host[960] txrate 1000Bps
attr unit Bps
par Aloha.host[961] typename "\"Host\""
par Aloha.host[961] arrrate 0.3
par Aloha.host[961] packet_size 1B
attr unit B
par Aloha.host[961] x 125.044m
attr unit m
par Aloha.host[961] y 48.511m
attr unit m
par Aloha.host[961] txrate 1000Bps
attr unit Bps
par Aloha.host[962] typename "\"Host\""
par Aloha.host[962] arrrate 0.3
par Aloha.host[962] packet_size 1B
attr unit B
par Aloha.host[962] x 42.2041m
attr unit m
par Aloha.host[962] y 37.0917m
attr unit m
par Aloha.host[962] txrate 1000Bps
attr unit Bps
par Aloha.host[963] typename "\"Host\""
par Aloha.host[963] arrrate 0.3
par Aloha.host[963] packet_size 1B
attr unit B
par Aloha.host[963] x 75.6673m
attr unit m
par Aloha.host[963] y 35.8563m
attr unit m
par Aloha.host[963] txrate 1000Bps
attr unit Bps
par Aloha.host[964] typename "\"Host\""
par Aloha.host[964] arrrate 0.3
par Aloha.host[964] packet_size 1B
attr unit B
par Aloha.host[964] x 80.2498m
attr unit m
par Aloha.host[964] y 115.694m
attr unit m
par Aloha.host[964] txrate 1000Bps
attr unit Bps
par Aloha.host[965] typename "\"Host\""
par Aloha.host[965] arrrate 0.3
par Aloha.host[965] packet_size 1B
attr unit B
par Aloha.host[965] x 124.889m
attr unit m
par Aloha.host[965] y 187.411m
attr unit m
par Aloha.host[965] txrate 1000Bps
attr unit Bps
par Aloha.host[966] typename "\"Host\""
par Aloha.host[966] arrrate 0.3
par Aloha.host[966] packet_size 1B
attr unit B
par Aloha.host[966] x 191.053m
attr unit m
par Aloha.host[966] y 159.486m
attr unit m
par Aloha.host[966] txrate 1000Bps
attr unit Bps
par Aloha.host[967] typename "\"Host\""
par Aloha.host[967] arrrate 0.3
par Aloha.host[967] packet_size 1B
attr unit B
par Aloha.host[967] x 197.714m
attr unit m
par Aloha.host[967] y 72.6175m
attr unit m
par Aloha.host[967] txrate 1000Bps
attr unit Bps
par Aloha.host[968] typename "\"Host\""
par Aloha.host[968] arrrate 0.3
par Aloha.host[968] packet_size 1B
attr unit B
par Aloha.host[968] x 59.7868m
attr unit m
par Aloha.host[968] y 0.0776581m
attr unit m
par Aloha.host[968] txrate 1000Bps
attr unit Bps
par Aloha.host[969] typename "\"Host\""
par Aloha.host[969] arrrate 0.3
par Aloha.host[969] packet_size 1B
attr unit B
par Aloha.host[969] x 52.9031m
attr unit m
par Aloha.host[969] y 66.8041m
attr unit m
par Aloha.host[969] txrate 1000Bps
attr unit Bps
par Aloha.host[970] typename "\"Host\""
par Aloha.host[970] arrrate 0.3
par Aloha.host[970] packet_size 1B
attr unit B
par Aloha.host[970] x 144.052m
attr unit m
par Aloha.host[970] y 120.056m
attr unit m
par Aloha.host[970] txrate 1000Bps
attr unit Bps
par Aloha.host[971] typename "\"Host\""
par Aloha.host[971] arrrate 0.3
par Aloha.host[971] packet_size 1B
attr unit B
par Aloha.host[971] x 137.92m
attr unit m
par Aloha.host[971] y 31.1453m
attr unit m
par Aloha.host[971] txrate 1000Bps
attr unit Bps
par Aloha.host[972] typename "\"Host\""
par Aloha.host[972] arrrate 0.3
par Aloha.host[972] packet_size 1B
attr unit B
par Aloha.host[972] x 54.2712m
attr unit m
par Aloha.host[972] y 122.703m
attr unit m
par Aloha.host[972] txrate 1000Bps
attr unit Bps
par Aloha.host[973] typename "\"Host\""
par Aloha.host[973] arrrate 0.3
par Aloha.host[973] packet_size 1B
attr unit B
par Aloha.host[973] x 189.195m
attr unit m
par Aloha.host[973] y 15.9889m
attr unit m
par Aloha.host[973] txrate 1000Bps
attr unit Bps
par Aloha.host[974] typename "\"Host\""
par Aloha.host[974] arrrate 0.3
par Aloha.host[974] packet_size 1B
attr unit B
par Aloha.host[974] x 160.275m
attr unit m
par Aloha.host[974] y 39.4957m
attr unit m
par Aloha.host[974] txrate 1000Bps
attr unit Bps
par Aloha.host[975] typename "\"Host\""
par Aloha.host[975] arrrate 0.3
par Aloha.host[975] packet_size 1B
attr unit B
par Aloha.host[975] x 39.7252m
attr unit m
par Aloha.host[975] y 14.3713m
attr unit m
par Aloha.host[975] txrate 1000Bps
attr unit Bps
par Aloha.host[976] typename "\"Host\""
par Aloha.host[976] arrrate 0.3
par Aloha.host[976] packet_size 1B
attr unit B
par Aloha.host[976] x 99.3102m
attr unit m
par Aloha.host[976] y 74.1972m
attr unit m
par Aloha.host[976] txrate 1000Bps
attr unit Bps
par Aloha.host[977] typename "\"Host\""
par Aloha.host[977] arrrate 0.3
par Aloha.host[977] packet_size 1B
attr unit B
par Aloha.host[977] x 18.4591m
attr unit m
par Aloha.host[977] y 90.3362m
attr unit m
par Aloha.host[977] txrate 1000Bps
attr unit Bps
par Aloha.host[978] typename "\"Host\""
par Aloha.host[978] arrrate 0.3
par Aloha.host[978] packet_size 1B
attr unit B
par Aloha.host[978] x 104.99m
attr unit m
par Aloha.host[978] y 7.03398m
attr unit m
par Aloha.host[978] txrate 1000Bps
attr unit Bps
par Aloha.host[979] typename "\"Host\""
par Aloha.host[979] arrrate 0.3
par Aloha.host[979] packet_size 1B
attr unit B
par Aloha.host[979] x 113.882m
attr unit m
par Aloha.host[979] y 40.1732m
attr unit m
par Aloha.host[979] txrate 1000Bps
attr unit Bps
par Aloha.host[980] typename "\"Host\""
par Aloha.host[980] arrrate 0.3
par Aloha.host[980] packet_size 1B
attr unit B
par Aloha.host[980] x 36.2671m
attr unit m
par Aloha.host[980] y 68.317m
attr unit m
par Aloha.host[980] txrate 1000Bps
attr unit Bps
par Aloha.host[981] typename "\"Host\""
par Aloha.host[981] arrrate 0.3
par Aloha.host[981] packet_size 1B
attr unit B
par Aloha.host[981] x 14.9156m
attr unit m
par Aloha.host[981] y 103.156m
attr unit m
par Aloha.host[981] txrate 1000Bps
attr unit Bps
par Aloha.host[982] typename "\"Host\""
par Aloha.host[982] arrrate 0.3
par Aloha.host[982] packet_size 1B
attr unit B
par Aloha.host[982] x 36.016m
attr unit m
par Aloha.host[982] y 67.2999m
attr unit m
par Aloha.host[982] txrate 1000Bps
attr unit Bps
par Aloha.host[983] typename "\"Host\""
par Aloha.host[983] arrrate 0.3
par Aloha.host[983] packet_size 1B
attr unit B
par Aloha.host[983] x 97.561m
attr unit m
par Aloha.host[983] y 109.49m
attr unit m
par Aloha.host[983] txrate 1000Bps
attr unit Bps
par Aloha.host[984] typename "\"Host\""
par Aloha.host[984] arrrate 0.3
par Aloha.host[984] packet_size 1B
attr unit B
par Aloha.host[984] x 11.1867m
attr unit m
par Aloha.host[984] y 66.7407m
attr unit m
par Aloha.host[984] txrate 1000Bps
attr unit Bps
par Aloha.host[985] typename "\"Host\""
par Aloha.host[985] arrrate 0.3
par Aloha.host[985] packet_size 1B
attr unit B
par Aloha.host[985] x 34.8073m
attr unit m
par Aloha.host[985] y 154.306m
attr unit m
par Aloha.host[985] txrate 1000Bps
attr unit Bps
par Aloha.host[986] typename "\"Host\""
par Aloha.host[986] arrrate 0.3
par Aloha.host[986] packet_size 1B
attr unit B
par Aloha.host[986] x 38.822m
attr unit m
par Aloha.host[986] y 190.022m
attr unit m
par Aloha.host[986] txrate 1000Bps
attr unit Bps
par Aloha.host[987] typename "\"Host\""
par Aloha.host[987] arrrate 0.3
par Aloha.host[987] packet_size 1B
attr unit B
par Aloha.host[987] x 85.8208m
attr unit m
par Aloha.host[987] y 159.34m
attr unit m
par Aloha.host[987] txrate 1000Bps
attr unit Bps
par Aloha.host[988] typename "\"Host\""
par Aloha.host[988] arrrate 0.3
par Aloha.host[988] packet_size 1B
attr unit B
par Aloha.host[988] x 107.243m
attr unit m
par Aloha.host[988] y 152.674m
attr unit m
par Aloha.host[988] txrate 1000Bps
attr unit Bps
par Aloha.host[989] typename "\"Host\""
par Aloha.host[989] arrrate 0.3
par Aloha.host[989] packet_size 1B
attr unit B
par Aloha.host[989] x 73.5032m
attr unit m
par Aloha.host[989] y 97.7861m
attr unit m
par Aloha.host[989] txrate 1000Bps
attr unit Bps
par Aloha.host[990] typename "\"Host\""
par Aloha.host[990] arrrate 0.3
par Aloha.host[990] packet_size 1B
attr unit B
par Aloha.host[990] x 129.079m
attr unit m
par Aloha.host[990] y 77.5552m
attr unit m
par Aloha.host[990] txrate 1000Bps
attr unit Bps
par Aloha.host[991] typename "\"Host\""
par Aloha.host[991] arrrate 0.3
par Aloha.host[991] packet_size 1B
attr unit B
par Aloha.host[991] x 186.41m
attr unit m
par Aloha.host[991] y 196.654m
attr unit m
par Aloha.host[991] txrate 1000Bps
attr unit Bps
par Aloha.host[992] typename "\"Host\""
par Aloha.host[992] arrrate 0.3
par Aloha.host[992] packet_size 1B
attr unit B
par Aloha.host[992] x 46.5845m
attr unit m
par Aloha.host[992] y 41.1495m
attr unit m
par Aloha.host[992] txrate 1000Bps
attr unit Bps
par Aloha.host[993] typename "\"Host\""
par Aloha.host[993] arrrate 0.3
par Aloha.host[993] packet_size 1B
attr unit B
par Aloha.host[993] x 198.004m
attr unit m
par Aloha.host[993] y 196.649m
attr unit m
par Aloha.host[993] txrate 1000Bps
attr unit Bps
par Aloha.host[994] typename "\"Host\""
par Aloha.host[994] arrrate 0.3
par Aloha.host[994] packet_size 1B
attr unit B
par Aloha.host[994] x 66.7344m
attr unit m
par Aloha.host[994] y 163.921m
attr unit m
par Aloha.host[994] txrate 1000Bps
attr unit Bps
par Aloha.host[995] typename "\"Host\""
par Aloha.host[995] arrrate 0.3
par Aloha.host[995] packet_size 1B
attr unit B
par Aloha.host[995] x 119.701m
attr unit m
par Aloha.host[995] y 48.8136m
attr unit m
par Aloha.host[995] txrate 1000Bps
attr unit Bps
par Aloha.host[996] typename "\"Host\""
par Aloha.host[996] arrrate 0.3
par Aloha.host[996] packet_size 1B
attr unit B
par Aloha.host[996] x 71.784m
attr unit m
par Aloha.host[996] y 174.448m
attr unit m
par Aloha.host[996] txrate 1000Bps
attr unit Bps
par Aloha.host[997] typename "\"Host\""
par Aloha.host[997] arrrate 0.3
par Aloha.host[997] packet_size 1B
attr unit B
par Aloha.host[997] x 136.078m
attr unit m
par Aloha.host[997] y 21.3432m
attr unit m
par Aloha.host[997] txrate 1000Bps
attr unit Bps
par Aloha.host[998] typename "\"Host\""
par Aloha.host[998] arrrate 0.3
par Aloha.host[998] packet_size 1B
attr unit B
par Aloha.host[998] x 170.64m
attr unit m
par Aloha.host[998] y 60.9907m
attr unit m
par Aloha.host[998] txrate 1000Bps
attr unit Bps
par Aloha.host[999] typename "\"Host\""
par Aloha.host[999] arrrate 0.3
par Aloha.host[999] packet_size 1B
attr unit B
par Aloha.host[999] x 158.569m
attr unit m
par Aloha.host[999] y 156.763m
attr unit m
par Aloha.host[999] txrate 1000Bps
attr unit Bps
par Aloha.server typename "\"Server\""
par Aloha.server x 124.369m
attr unit m
par Aloha.server y 34.2011m
attr unit m
scalar Aloha.server prob_succ 0.54882902953816
scalar Aloha.server uti 16.462849
par Aloha typename "\"Aloha\""
par Aloha numHosts 1000

