version 3
run General-10-20220605-16:52:25-732258
attr configname General
attr datetime 20220605-16:52:25
attr datetimef 20220605-165225
attr experiment General
attr inifile aloha.ini
attr iterationvars $0=3
attr iterationvarsd 3
attr iterationvarsf 3-
attr measurement $0=3
attr network Aloha
attr processid 732258
attr repetition 0
attr replication #0
attr resultdir results
attr runnumber 10
attr seedset 10
config network Aloha
config cmdenv-performance-display false
config sim-time-limit 100000s
config **.x "uniform(0m, 200m)"
config **.y "uniform(0m, 200m)"
config *.numHosts 1000
config **.packet_size 1B
config **.txrate 1000Bps
config **.arrrate 3

par Aloha.host[0] typename "\"Host\""
par Aloha.host[0] arrrate 3
par Aloha.host[0] packet_size 1B
attr unit B
par Aloha.host[0] x 154.264m
attr unit m
par Aloha.host[0] y 59.7522m
attr unit m
par Aloha.host[0] txrate 1000Bps
attr unit Bps
par Aloha.host[1] typename "\"Host\""
par Aloha.host[1] arrrate 3
par Aloha.host[1] packet_size 1B
attr unit B
par Aloha.host[1] x 4.15039m
attr unit m
par Aloha.host[1] y 98.918m
attr unit m
par Aloha.host[1] txrate 1000Bps
attr unit Bps
par Aloha.host[2] typename "\"Host\""
par Aloha.host[2] arrrate 3
par Aloha.host[2] packet_size 1B
attr unit B
par Aloha.host[2] x 126.73m
attr unit m
par Aloha.host[2] y 88.603m
attr unit m
par Aloha.host[2] txrate 1000Bps
attr unit Bps
par Aloha.host[3] typename "\"Host\""
par Aloha.host[3] arrrate 3
par Aloha.host[3] packet_size 1B
attr unit B
par Aloha.host[3] x 149.761m
attr unit m
par Aloha.host[3] y 166.382m
attr unit m
par Aloha.host[3] txrate 1000Bps
attr unit Bps
par Aloha.host[4] typename "\"Host\""
par Aloha.host[4] arrrate 3
par Aloha.host[4] packet_size 1B
attr unit B
par Aloha.host[4] x 99.7014m
attr unit m
par Aloha.host[4] y 116.664m
attr unit m
par Aloha.host[4] txrate 1000Bps
attr unit Bps
par Aloha.host[5] typename "\"Host\""
par Aloha.host[5] arrrate 3
par Aloha.host[5] packet_size 1B
attr unit B
par Aloha.host[5] x 44.9593m
attr unit m
par Aloha.host[5] y 5.03435m
attr unit m
par Aloha.host[5] txrate 1000Bps
attr unit Bps
par Aloha.host[6] typename "\"Host\""
par Aloha.host[6] arrrate 3
par Aloha.host[6] packet_size 1B
attr unit B
par Aloha.host[6] x 39.6126m
attr unit m
par Aloha.host[6] y 141.842m
attr unit m
par Aloha.host[6] txrate 1000Bps
attr unit Bps
par Aloha.host[7] typename "\"Host\""
par Aloha.host[7] arrrate 3
par Aloha.host[7] packet_size 1B
attr unit B
par Aloha.host[7] x 152.106m
attr unit m
par Aloha.host[7] y 53.1132m
attr unit m
par Aloha.host[7] txrate 1000Bps
attr unit Bps
par Aloha.host[8] typename "\"Host\""
par Aloha.host[8] arrrate 3
par Aloha.host[8] packet_size 1B
attr unit B
par Aloha.host[8] x 33.8222m
attr unit m
par Aloha.host[8] y 52.7206m
attr unit m
par Aloha.host[8] txrate 1000Bps
attr unit Bps
par Aloha.host[9] typename "\"Host\""
par Aloha.host[9] arrrate 3
par Aloha.host[9] packet_size 1B
attr unit B
par Aloha.host[9] x 17.668m
attr unit m
par Aloha.host[9] y 30.0756m
attr unit m
par Aloha.host[9] txrate 1000Bps
attr unit Bps
par Aloha.host[10] typename "\"Host\""
par Aloha.host[10] arrrate 3
par Aloha.host[10] packet_size 1B
attr unit B
par Aloha.host[10] x 137.072m
attr unit m
par Aloha.host[10] y 136.764m
attr unit m
par Aloha.host[10] txrate 1000Bps
attr unit Bps
par Aloha.host[11] typename "\"Host\""
par Aloha.host[11] arrrate 3
par Aloha.host[11] packet_size 1B
attr unit B
par Aloha.host[11] x 190.679m
attr unit m
par Aloha.host[11] y 163.32m
attr unit m
par Aloha.host[11] txrate 1000Bps
attr unit Bps
par Aloha.host[12] typename "\"Host\""
par Aloha.host[12] arrrate 3
par Aloha.host[12] packet_size 1B
attr unit B
par Aloha.host[12] x 0.789653m
attr unit m
par Aloha.host[12] y 67.2143m
attr unit m
par Aloha.host[12] txrate 1000Bps
attr unit Bps
par Aloha.host[13] typename "\"Host\""
par Aloha.host[13] arrrate 3
par Aloha.host[13] packet_size 1B
attr unit B
par Aloha.host[13] x 102.438m
attr unit m
par Aloha.host[13] y 178.163m
attr unit m
par Aloha.host[13] txrate 1000Bps
attr unit Bps
par Aloha.host[14] typename "\"Host\""
par Aloha.host[14] arrrate 3
par Aloha.host[14] packet_size 1B
attr unit B
par Aloha.host[14] x 162.524m
attr unit m
par Aloha.host[14] y 39.6244m
attr unit m
par Aloha.host[14] txrate 1000Bps
attr unit Bps
par Aloha.host[15] typename "\"Host\""
par Aloha.host[15] arrrate 3
par Aloha.host[15] packet_size 1B
attr unit B
par Aloha.host[15] x 122.505m
attr unit m
par Aloha.host[15] y 6.12333m
attr unit m
par Aloha.host[15] txrate 1000Bps
attr unit Bps
par Aloha.host[16] typename "\"Host\""
par Aloha.host[16] arrrate 3
par Aloha.host[16] packet_size 1B
attr unit B
par Aloha.host[16] x 144.351m
attr unit m
par Aloha.host[16] y 175.523m
attr unit m
par Aloha.host[16] txrate 1000Bps
attr unit Bps
par Aloha.host[17] typename "\"Host\""
par Aloha.host[17] arrrate 3
par Aloha.host[17] packet_size 1B
attr unit B
par Aloha.host[17] x 58.3752m
attr unit m
par Aloha.host[17] y 145.487m
attr unit m
par Aloha.host[17] txrate 1000Bps
attr unit Bps
par Aloha.host[18] typename "\"Host\""
par Aloha.host[18] arrrate 3
par Aloha.host[18] packet_size 1B
attr unit B
par Aloha.host[18] x 183.555m
attr unit m
par Aloha.host[18] y 108.176m
attr unit m
par Aloha.host[18] txrate 1000Bps
attr unit Bps
par Aloha.host[19] typename "\"Host\""
par Aloha.host[19] arrrate 3
par Aloha.host[19] packet_size 1B
attr unit B
par Aloha.host[19] x 142.915m
attr unit m
par Aloha.host[19] y 26.2916m
attr unit m
par Aloha.host[19] txrate 1000Bps
attr unit Bps
par Aloha.host[20] typename "\"Host\""
par Aloha.host[20] arrrate 3
par Aloha.host[20] packet_size 1B
attr unit B
par Aloha.host[20] x 108.509m
attr unit m
par Aloha.host[20] y 82.7335m
attr unit m
par Aloha.host[20] txrate 1000Bps
attr unit Bps
par Aloha.host[21] typename "\"Host\""
par Aloha.host[21] arrrate 3
par Aloha.host[21] packet_size 1B
attr unit B
par Aloha.host[21] x 28.434m
attr unit m
par Aloha.host[21] y 155.746m
attr unit m
par Aloha.host[21] txrate 1000Bps
attr unit Bps
par Aloha.host[22] typename "\"Host\""
par Aloha.host[22] arrrate 3
par Aloha.host[22] packet_size 1B
attr unit B
par Aloha.host[22] x 74.6682m
attr unit m
par Aloha.host[22] y 116.78m
attr unit m
par Aloha.host[22] txrate 1000Bps
attr unit Bps
par Aloha.host[23] typename "\"Host\""
par Aloha.host[23] arrrate 3
par Aloha.host[23] packet_size 1B
attr unit B
par Aloha.host[23] x 134.827m
attr unit m
par Aloha.host[23] y 36.5263m
attr unit m
par Aloha.host[23] txrate 1000Bps
attr unit Bps
par Aloha.host[24] typename "\"Host\""
par Aloha.host[24] arrrate 3
par Aloha.host[24] packet_size 1B
attr unit B
par Aloha.host[24] x 88.3666m
attr unit m
par Aloha.host[24] y 165.216m
attr unit m
par Aloha.host[24] txrate 1000Bps
attr unit Bps
par Aloha.host[25] typename "\"Host\""
par Aloha.host[25] arrrate 3
par Aloha.host[25] packet_size 1B
attr unit B
par Aloha.host[25] x 86.8028m
attr unit m
par Aloha.host[25] y 21.0804m
attr unit m
par Aloha.host[25] txrate 1000Bps
attr unit Bps
par Aloha.host[26] typename "\"Host\""
par Aloha.host[26] arrrate 3
par Aloha.host[26] packet_size 1B
attr unit B
par Aloha.host[26] x 123.553m
attr unit m
par Aloha.host[26] y 56.7153m
attr unit m
par Aloha.host[26] txrate 1000Bps
attr unit Bps
par Aloha.host[27] typename "\"Host\""
par Aloha.host[27] arrrate 3
par Aloha.host[27] packet_size 1B
attr unit B
par Aloha.host[27] x 102.628m
attr unit m
par Aloha.host[27] y 13.1127m
attr unit m
par Aloha.host[27] txrate 1000Bps
attr unit Bps
par Aloha.host[28] typename "\"Host\""
par Aloha.host[28] arrrate 3
par Aloha.host[28] packet_size 1B
attr unit B
par Aloha.host[28] x 130.079m
attr unit m
par Aloha.host[28] y 11.2888m
attr unit m
par Aloha.host[28] txrate 1000Bps
attr unit Bps
par Aloha.host[29] typename "\"Host\""
par Aloha.host[29] arrrate 3
par Aloha.host[29] packet_size 1B
attr unit B
par Aloha.host[29] x 120.208m
attr unit m
par Aloha.host[29] y 153.091m
attr unit m
par Aloha.host[29] txrate 1000Bps
attr unit Bps
par Aloha.host[30] typename "\"Host\""
par Aloha.host[30] arrrate 3
par Aloha.host[30] packet_size 1B
attr unit B
par Aloha.host[30] x 161.045m
attr unit m
par Aloha.host[30] y 2.35761m
attr unit m
par Aloha.host[30] txrate 1000Bps
attr unit Bps
par Aloha.host[31] typename "\"Host\""
par Aloha.host[31] arrrate 3
par Aloha.host[31] packet_size 1B
attr unit B
par Aloha.host[31] x 104.329m
attr unit m
par Aloha.host[31] y 122.389m
attr unit m
par Aloha.host[31] txrate 1000Bps
attr unit Bps
par Aloha.host[32] typename "\"Host\""
par Aloha.host[32] arrrate 3
par Aloha.host[32] packet_size 1B
attr unit B
par Aloha.host[32] x 181.73m
attr unit m
par Aloha.host[32] y 66.3765m
attr unit m
par Aloha.host[32] txrate 1000Bps
attr unit Bps
par Aloha.host[33] typename "\"Host\""
par Aloha.host[33] arrrate 3
par Aloha.host[33] packet_size 1B
attr unit B
par Aloha.host[33] x 63.8472m
attr unit m
par Aloha.host[33] y 111.93m
attr unit m
par Aloha.host[33] txrate 1000Bps
attr unit Bps
par Aloha.host[34] typename "\"Host\""
par Aloha.host[34] arrrate 3
par Aloha.host[34] packet_size 1B
attr unit B
par Aloha.host[34] x 18.0919m
attr unit m
par Aloha.host[34] y 67.0999m
attr unit m
par Aloha.host[34] txrate 1000Bps
attr unit Bps
par Aloha.host[35] typename "\"Host\""
par Aloha.host[35] arrrate 3
par Aloha.host[35] packet_size 1B
attr unit B
par Aloha.host[35] x 60.14m
attr unit m
par Aloha.host[35] y 82.2365m
attr unit m
par Aloha.host[35] txrate 1000Bps
attr unit Bps
par Aloha.host[36] typename "\"Host\""
par Aloha.host[36] arrrate 3
par Aloha.host[36] packet_size 1B
attr unit B
par Aloha.host[36] x 22.7969m
attr unit m
par Aloha.host[36] y 15.3711m
attr unit m
par Aloha.host[36] txrate 1000Bps
attr unit Bps
par Aloha.host[37] typename "\"Host\""
par Aloha.host[37] arrrate 3
par Aloha.host[37] packet_size 1B
attr unit B
par Aloha.host[37] x 165.736m
attr unit m
par Aloha.host[37] y 170.609m
attr unit m
par Aloha.host[37] txrate 1000Bps
attr unit Bps
par Aloha.host[38] typename "\"Host\""
par Aloha.host[38] arrrate 3
par Aloha.host[38] packet_size 1B
attr unit B
par Aloha.host[38] x 9.37926m
attr unit m
par Aloha.host[38] y 87.9975m
attr unit m
par Aloha.host[38] txrate 1000Bps
attr unit Bps
par Aloha.host[39] typename "\"Host\""
par Aloha.host[39] arrrate 3
par Aloha.host[39] packet_size 1B
attr unit B
par Aloha.host[39] x 125.257m
attr unit m
par Aloha.host[39] y 24.3908m
attr unit m
par Aloha.host[39] txrate 1000Bps
attr unit Bps
par Aloha.host[40] typename "\"Host\""
par Aloha.host[40] arrrate 3
par Aloha.host[40] packet_size 1B
attr unit B
par Aloha.host[40] x 109.517m
attr unit m
par Aloha.host[40] y 146.347m
attr unit m
par Aloha.host[40] txrate 1000Bps
attr unit Bps
par Aloha.host[41] typename "\"Host\""
par Aloha.host[41] arrrate 3
par Aloha.host[41] packet_size 1B
attr unit B
par Aloha.host[41] x 163.857m
attr unit m
par Aloha.host[41] y 27.7565m
attr unit m
par Aloha.host[41] txrate 1000Bps
attr unit Bps
par Aloha.host[42] typename "\"Host\""
par Aloha.host[42] arrrate 3
par Aloha.host[42] packet_size 1B
attr unit B
par Aloha.host[42] x 39.7895m
attr unit m
par Aloha.host[42] y 153.376m
attr unit m
par Aloha.host[42] txrate 1000Bps
attr unit Bps
par Aloha.host[43] typename "\"Host\""
par Aloha.host[43] arrrate 3
par Aloha.host[43] packet_size 1B
attr unit B
par Aloha.host[43] x 171.37m
attr unit m
par Aloha.host[43] y 166.398m
attr unit m
par Aloha.host[43] txrate 1000Bps
attr unit Bps
par Aloha.host[44] typename "\"Host\""
par Aloha.host[44] arrrate 3
par Aloha.host[44] packet_size 1B
attr unit B
par Aloha.host[44] x 70.3305m
attr unit m
par Aloha.host[44] y 61.9556m
attr unit m
par Aloha.host[44] txrate 1000Bps
attr unit Bps
par Aloha.host[45] typename "\"Host\""
par Aloha.host[45] arrrate 3
par Aloha.host[45] packet_size 1B
attr unit B
par Aloha.host[45] x 150.93m
attr unit m
par Aloha.host[45] y 119.516m
attr unit m
par Aloha.host[45] txrate 1000Bps
attr unit Bps
par Aloha.host[46] typename "\"Host\""
par Aloha.host[46] arrrate 3
par Aloha.host[46] packet_size 1B
attr unit B
par Aloha.host[46] x 59.1923m
attr unit m
par Aloha.host[46] y 174.478m
attr unit m
par Aloha.host[46] txrate 1000Bps
attr unit Bps
par Aloha.host[47] typename "\"Host\""
par Aloha.host[47] arrrate 3
par Aloha.host[47] packet_size 1B
attr unit B
par Aloha.host[47] x 176.787m
attr unit m
par Aloha.host[47] y 196.604m
attr unit m
par Aloha.host[47] txrate 1000Bps
attr unit Bps
par Aloha.host[48] typename "\"Host\""
par Aloha.host[48] arrrate 3
par Aloha.host[48] packet_size 1B
attr unit B
par Aloha.host[48] x 65.1023m
attr unit m
par Aloha.host[48] y 93.4807m
attr unit m
par Aloha.host[48] txrate 1000Bps
attr unit Bps
par Aloha.host[49] typename "\"Host\""
par Aloha.host[49] arrrate 3
par Aloha.host[49] packet_size 1B
attr unit B
par Aloha.host[49] x 33.0032m
attr unit m
par Aloha.host[49] y 175.149m
attr unit m
par Aloha.host[49] txrate 1000Bps
attr unit Bps
par Aloha.host[50] typename "\"Host\""
par Aloha.host[50] arrrate 3
par Aloha.host[50] packet_size 1B
attr unit B
par Aloha.host[50] x 78.5058m
attr unit m
par Aloha.host[50] y 59.2137m
attr unit m
par Aloha.host[50] txrate 1000Bps
attr unit Bps
par Aloha.host[51] typename "\"Host\""
par Aloha.host[51] arrrate 3
par Aloha.host[51] packet_size 1B
attr unit B
par Aloha.host[51] x 18.6921m
attr unit m
par Aloha.host[51] y 26.2582m
attr unit m
par Aloha.host[51] txrate 1000Bps
attr unit Bps
par Aloha.host[52] typename "\"Host\""
par Aloha.host[52] arrrate 3
par Aloha.host[52] packet_size 1B
attr unit B
par Aloha.host[52] x 164.221m
attr unit m
par Aloha.host[52] y 168.564m
attr unit m
par Aloha.host[52] txrate 1000Bps
attr unit Bps
par Aloha.host[53] typename "\"Host\""
par Aloha.host[53] arrrate 3
par Aloha.host[53] packet_size 1B
attr unit B
par Aloha.host[53] x 30.2304m
attr unit m
par Aloha.host[53] y 131.807m
attr unit m
par Aloha.host[53] txrate 1000Bps
attr unit Bps
par Aloha.host[54] typename "\"Host\""
par Aloha.host[54] arrrate 3
par Aloha.host[54] packet_size 1B
attr unit B
par Aloha.host[54] x 76.8229m
attr unit m
par Aloha.host[54] y 119.088m
attr unit m
par Aloha.host[54] txrate 1000Bps
attr unit Bps
par Aloha.host[55] typename "\"Host\""
par Aloha.host[55] arrrate 3
par Aloha.host[55] packet_size 1B
attr unit B
par Aloha.host[55] x 188.852m
attr unit m
par Aloha.host[55] y 87.2707m
attr unit m
par Aloha.host[55] txrate 1000Bps
attr unit Bps
par Aloha.host[56] typename "\"Host\""
par Aloha.host[56] arrrate 3
par Aloha.host[56] packet_size 1B
attr unit B
par Aloha.host[56] x 197.525m
attr unit m
par Aloha.host[56] y 71.2501m
attr unit m
par Aloha.host[56] txrate 1000Bps
attr unit Bps
par Aloha.host[57] typename "\"Host\""
par Aloha.host[57] arrrate 3
par Aloha.host[57] packet_size 1B
attr unit B
par Aloha.host[57] x 91.2609m
attr unit m
par Aloha.host[57] y 117.426m
attr unit m
par Aloha.host[57] txrate 1000Bps
attr unit Bps
par Aloha.host[58] typename "\"Host\""
par Aloha.host[58] arrrate 3
par Aloha.host[58] packet_size 1B
attr unit B
par Aloha.host[58] x 165.225m
attr unit m
par Aloha.host[58] y 29.8943m
attr unit m
par Aloha.host[58] txrate 1000Bps
attr unit Bps
par Aloha.host[59] typename "\"Host\""
par Aloha.host[59] arrrate 3
par Aloha.host[59] packet_size 1B
attr unit B
par Aloha.host[59] x 50.2748m
attr unit m
par Aloha.host[59] y 34.2477m
attr unit m
par Aloha.host[59] txrate 1000Bps
attr unit Bps
par Aloha.host[60] typename "\"Host\""
par Aloha.host[60] arrrate 3
par Aloha.host[60] packet_size 1B
attr unit B
par Aloha.host[60] x 119.474m
attr unit m
par Aloha.host[60] y 79.4329m
attr unit m
par Aloha.host[60] txrate 1000Bps
attr unit Bps
par Aloha.host[61] typename "\"Host\""
par Aloha.host[61] arrrate 3
par Aloha.host[61] packet_size 1B
attr unit B
par Aloha.host[61] x 180.566m
attr unit m
par Aloha.host[61] y 127.59m
attr unit m
par Aloha.host[61] txrate 1000Bps
attr unit Bps
par Aloha.host[62] typename "\"Host\""
par Aloha.host[62] arrrate 3
par Aloha.host[62] packet_size 1B
attr unit B
par Aloha.host[62] x 106.912m
attr unit m
par Aloha.host[62] y 74.504m
attr unit m
par Aloha.host[62] txrate 1000Bps
attr unit Bps
par Aloha.host[63] typename "\"Host\""
par Aloha.host[63] arrrate 3
par Aloha.host[63] packet_size 1B
attr unit B
par Aloha.host[63] x 118.04m
attr unit m
par Aloha.host[63] y 0.481353m
attr unit m
par Aloha.host[63] txrate 1000Bps
attr unit Bps
par Aloha.host[64] typename "\"Host\""
par Aloha.host[64] arrrate 3
par Aloha.host[64] packet_size 1B
attr unit B
par Aloha.host[64] x 7.85635m
attr unit m
par Aloha.host[64] y 109.763m
attr unit m
par Aloha.host[64] txrate 1000Bps
attr unit Bps
par Aloha.host[65] typename "\"Host\""
par Aloha.host[65] arrrate 3
par Aloha.host[65] packet_size 1B
attr unit B
par Aloha.host[65] x 71.4364m
attr unit m
par Aloha.host[65] y 25.3944m
attr unit m
par Aloha.host[65] txrate 1000Bps
attr unit Bps
par Aloha.host[66] typename "\"Host\""
par Aloha.host[66] arrrate 3
par Aloha.host[66] packet_size 1B
attr unit B
par Aloha.host[66] x 15.9226m
attr unit m
par Aloha.host[66] y 15.9585m
attr unit m
par Aloha.host[66] txrate 1000Bps
attr unit Bps
par Aloha.host[67] typename "\"Host\""
par Aloha.host[67] arrrate 3
par Aloha.host[67] packet_size 1B
attr unit B
par Aloha.host[67] x 61.092m
attr unit m
par Aloha.host[67] y 47.0077m
attr unit m
par Aloha.host[67] txrate 1000Bps
attr unit Bps
par Aloha.host[68] typename "\"Host\""
par Aloha.host[68] arrrate 3
par Aloha.host[68] packet_size 1B
attr unit B
par Aloha.host[68] x 66.1439m
attr unit m
par Aloha.host[68] y 131.993m
attr unit m
par Aloha.host[68] txrate 1000Bps
attr unit Bps
par Aloha.host[69] typename "\"Host\""
par Aloha.host[69] arrrate 3
par Aloha.host[69] packet_size 1B
attr unit B
par Aloha.host[69] x 154.766m
attr unit m
par Aloha.host[69] y 42.9906m
attr unit m
par Aloha.host[69] txrate 1000Bps
attr unit Bps
par Aloha.host[70] typename "\"Host\""
par Aloha.host[70] arrrate 3
par Aloha.host[70] packet_size 1B
attr unit B
par Aloha.host[70] x 7.99184m
attr unit m
par Aloha.host[70] y 40.6093m
attr unit m
par Aloha.host[70] txrate 1000Bps
attr unit Bps
par Aloha.host[71] typename "\"Host\""
par Aloha.host[71] arrrate 3
par Aloha.host[71] packet_size 1B
attr unit B
par Aloha.host[71] x 85.8984m
attr unit m
par Aloha.host[71] y 76.573m
attr unit m
par Aloha.host[71] txrate 1000Bps
attr unit Bps
par Aloha.host[72] typename "\"Host\""
par Aloha.host[72] arrrate 3
par Aloha.host[72] packet_size 1B
attr unit B
par Aloha.host[72] x 62.9854m
attr unit m
par Aloha.host[72] y 44.9746m
attr unit m
par Aloha.host[72] txrate 1000Bps
attr unit Bps
par Aloha.host[73] typename "\"Host\""
par Aloha.host[73] arrrate 3
par Aloha.host[73] packet_size 1B
attr unit B
par Aloha.host[73] x 127.298m
attr unit m
par Aloha.host[73] y 22.9298m
attr unit m
par Aloha.host[73] txrate 1000Bps
attr unit Bps
par Aloha.host[74] typename "\"Host\""
par Aloha.host[74] arrrate 3
par Aloha.host[74] packet_size 1B
attr unit B
par Aloha.host[74] x 69.2694m
attr unit m
par Aloha.host[74] y 116.603m
attr unit m
par Aloha.host[74] txrate 1000Bps
attr unit Bps
par Aloha.host[75] typename "\"Host\""
par Aloha.host[75] arrrate 3
par Aloha.host[75] packet_size 1B
attr unit B
par Aloha.host[75] x 8.61947m
attr unit m
par Aloha.host[75] y 46.5282m
attr unit m
par Aloha.host[75] txrate 1000Bps
attr unit Bps
par Aloha.host[76] typename "\"Host\""
par Aloha.host[76] arrrate 3
par Aloha.host[76] packet_size 1B
attr unit B
par Aloha.host[76] x 175.983m
attr unit m
par Aloha.host[76] y 111.304m
attr unit m
par Aloha.host[76] txrate 1000Bps
attr unit Bps
par Aloha.host[77] typename "\"Host\""
par Aloha.host[77] arrrate 3
par Aloha.host[77] packet_size 1B
attr unit B
par Aloha.host[77] x 152.648m
attr unit m
par Aloha.host[77] y 104.762m
attr unit m
par Aloha.host[77] txrate 1000Bps
attr unit Bps
par Aloha.host[78] typename "\"Host\""
par Aloha.host[78] arrrate 3
par Aloha.host[78] packet_size 1B
attr unit B
par Aloha.host[78] x 175.619m
attr unit m
par Aloha.host[78] y 70.1916m
attr unit m
par Aloha.host[78] txrate 1000Bps
attr unit Bps
par Aloha.host[79] typename "\"Host\""
par Aloha.host[79] arrrate 3
par Aloha.host[79] packet_size 1B
attr unit B
par Aloha.host[79] x 83.5018m
attr unit m
par Aloha.host[79] y 141.066m
attr unit m
par Aloha.host[79] txrate 1000Bps
attr unit Bps
par Aloha.host[80] typename "\"Host\""
par Aloha.host[80] arrrate 3
par Aloha.host[80] packet_size 1B
attr unit B
par Aloha.host[80] x 121.116m
attr unit m
par Aloha.host[80] y 164.141m
attr unit m
par Aloha.host[80] txrate 1000Bps
attr unit Bps
par Aloha.host[81] typename "\"Host\""
par Aloha.host[81] arrrate 3
par Aloha.host[81] packet_size 1B
attr unit B
par Aloha.host[81] x 102.693m
attr unit m
par Aloha.host[81] y 26.9126m
attr unit m
par Aloha.host[81] txrate 1000Bps
attr unit Bps
par Aloha.host[82] typename "\"Host\""
par Aloha.host[82] arrrate 3
par Aloha.host[82] packet_size 1B
attr unit B
par Aloha.host[82] x 119.567m
attr unit m
par Aloha.host[82] y 120.945m
attr unit m
par Aloha.host[82] txrate 1000Bps
attr unit Bps
par Aloha.host[83] typename "\"Host\""
par Aloha.host[83] arrrate 3
par Aloha.host[83] packet_size 1B
attr unit B
par Aloha.host[83] x 52.4431m
attr unit m
par Aloha.host[83] y 56.6297m
attr unit m
par Aloha.host[83] txrate 1000Bps
attr unit Bps
par Aloha.host[84] typename "\"Host\""
par Aloha.host[84] arrrate 3
par Aloha.host[84] packet_size 1B
attr unit B
par Aloha.host[84] x 60.1743m
attr unit m
par Aloha.host[84] y 101.282m
attr unit m
par Aloha.host[84] txrate 1000Bps
attr unit Bps
par Aloha.host[85] typename "\"Host\""
par Aloha.host[85] arrrate 3
par Aloha.host[85] packet_size 1B
attr unit B
par Aloha.host[85] x 5.07996m
attr unit m
par Aloha.host[85] y 7.69209m
attr unit m
par Aloha.host[85] txrate 1000Bps
attr unit Bps
par Aloha.host[86] typename "\"Host\""
par Aloha.host[86] arrrate 3
par Aloha.host[86] packet_size 1B
attr unit B
par Aloha.host[86] x 60.6125m
attr unit m
par Aloha.host[86] y 66.4888m
attr unit m
par Aloha.host[86] txrate 1000Bps
attr unit Bps
par Aloha.host[87] typename "\"Host\""
par Aloha.host[87] arrrate 3
par Aloha.host[87] packet_size 1B
attr unit B
par Aloha.host[87] x 48.4152m
attr unit m
par Aloha.host[87] y 0.0545056m
attr unit m
par Aloha.host[87] txrate 1000Bps
attr unit Bps
par Aloha.host[88] typename "\"Host\""
par Aloha.host[88] arrrate 3
par Aloha.host[88] packet_size 1B
attr unit B
par Aloha.host[88] x 111.516m
attr unit m
par Aloha.host[88] y 132.931m
attr unit m
par Aloha.host[88] txrate 1000Bps
attr unit Bps
par Aloha.host[89] typename "\"Host\""
par Aloha.host[89] arrrate 3
par Aloha.host[89] packet_size 1B
attr unit B
par Aloha.host[89] x 113.101m
attr unit m
par Aloha.host[89] y 75.4881m
attr unit m
par Aloha.host[89] txrate 1000Bps
attr unit Bps
par Aloha.host[90] typename "\"Host\""
par Aloha.host[90] arrrate 3
par Aloha.host[90] packet_size 1B
attr unit B
par Aloha.host[90] x 95.0264m
attr unit m
par Aloha.host[90] y 149.516m
attr unit m
par Aloha.host[90] txrate 1000Bps
attr unit Bps
par Aloha.host[91] typename "\"Host\""
par Aloha.host[91] arrrate 3
par Aloha.host[91] packet_size 1B
attr unit B
par Aloha.host[91] x 58.5596m
attr unit m
par Aloha.host[91] y 28.1152m
attr unit m
par Aloha.host[91] txrate 1000Bps
attr unit Bps
par Aloha.host[92] typename "\"Host\""
par Aloha.host[92] arrrate 3
par Aloha.host[92] packet_size 1B
attr unit B
par Aloha.host[92] x 12.8502m
attr unit m
par Aloha.host[92] y 77.6099m
attr unit m
par Aloha.host[92] txrate 1000Bps
attr unit Bps
par Aloha.host[93] typename "\"Host\""
par Aloha.host[93] arrrate 3
par Aloha.host[93] packet_size 1B
attr unit B
par Aloha.host[93] x 195.764m
attr unit m
par Aloha.host[93] y 173.298m
attr unit m
par Aloha.host[93] txrate 1000Bps
attr unit Bps
par Aloha.host[94] typename "\"Host\""
par Aloha.host[94] arrrate 3
par Aloha.host[94] packet_size 1B
attr unit B
par Aloha.host[94] x 67.9416m
attr unit m
par Aloha.host[94] y 191.371m
attr unit m
par Aloha.host[94] txrate 1000Bps
attr unit Bps
par Aloha.host[95] typename "\"Host\""
par Aloha.host[95] arrrate 3
par Aloha.host[95] packet_size 1B
attr unit B
par Aloha.host[95] x 99.0097m
attr unit m
par Aloha.host[95] y 97.3107m
attr unit m
par Aloha.host[95] txrate 1000Bps
attr unit Bps
par Aloha.host[96] typename "\"Host\""
par Aloha.host[96] arrrate 3
par Aloha.host[96] packet_size 1B
attr unit B
par Aloha.host[96] x 195.416m
attr unit m
par Aloha.host[96] y 21.1866m
attr unit m
par Aloha.host[96] txrate 1000Bps
attr unit Bps
par Aloha.host[97] typename "\"Host\""
par Aloha.host[97] arrrate 3
par Aloha.host[97] packet_size 1B
attr unit B
par Aloha.host[97] x 88.1548m
attr unit m
par Aloha.host[97] y 68.0075m
attr unit m
par Aloha.host[97] txrate 1000Bps
attr unit Bps
par Aloha.host[98] typename "\"Host\""
par Aloha.host[98] arrrate 3
par Aloha.host[98] packet_size 1B
attr unit B
par Aloha.host[98] x 63.6546m
attr unit m
par Aloha.host[98] y 167.114m
attr unit m
par Aloha.host[98] txrate 1000Bps
attr unit Bps
par Aloha.host[99] typename "\"Host\""
par Aloha.host[99] arrrate 3
par Aloha.host[99] packet_size 1B
attr unit B
par Aloha.host[99] x 103.959m
attr unit m
par Aloha.host[99] y 93.0883m
attr unit m
par Aloha.host[99] txrate 1000Bps
attr unit Bps
par Aloha.host[100] typename "\"Host\""
par Aloha.host[100] arrrate 3
par Aloha.host[100] packet_size 1B
attr unit B
par Aloha.host[100] x 115.627m
attr unit m
par Aloha.host[100] y 18.5712m
attr unit m
par Aloha.host[100] txrate 1000Bps
attr unit Bps
par Aloha.host[101] typename "\"Host\""
par Aloha.host[101] arrrate 3
par Aloha.host[101] packet_size 1B
attr unit B
par Aloha.host[101] x 170.787m
attr unit m
par Aloha.host[101] y 170.939m
attr unit m
par Aloha.host[101] txrate 1000Bps
attr unit Bps
par Aloha.host[102] typename "\"Host\""
par Aloha.host[102] arrrate 3
par Aloha.host[102] packet_size 1B
attr unit B
par Aloha.host[102] x 13.6195m
attr unit m
par Aloha.host[102] y 67.4516m
attr unit m
par Aloha.host[102] txrate 1000Bps
attr unit Bps
par Aloha.host[103] typename "\"Host\""
par Aloha.host[103] arrrate 3
par Aloha.host[103] packet_size 1B
attr unit B
par Aloha.host[103] x 92.9062m
attr unit m
par Aloha.host[103] y 121.229m
attr unit m
par Aloha.host[103] txrate 1000Bps
attr unit Bps
par Aloha.host[104] typename "\"Host\""
par Aloha.host[104] arrrate 3
par Aloha.host[104] packet_size 1B
attr unit B
par Aloha.host[104] x 156.39m
attr unit m
par Aloha.host[104] y 22.5329m
attr unit m
par Aloha.host[104] txrate 1000Bps
attr unit Bps
par Aloha.host[105] typename "\"Host\""
par Aloha.host[105] arrrate 3
par Aloha.host[105] packet_size 1B
attr unit B
par Aloha.host[105] x 143.721m
attr unit m
par Aloha.host[105] y 108.784m
attr unit m
par Aloha.host[105] txrate 1000Bps
attr unit Bps
par Aloha.host[106] typename "\"Host\""
par Aloha.host[106] arrrate 3
par Aloha.host[106] packet_size 1B
attr unit B
par Aloha.host[106] x 117.204m
attr unit m
par Aloha.host[106] y 144.16m
attr unit m
par Aloha.host[106] txrate 1000Bps
attr unit Bps
par Aloha.host[107] typename "\"Host\""
par Aloha.host[107] arrrate 3
par Aloha.host[107] packet_size 1B
attr unit B
par Aloha.host[107] x 7.41888m
attr unit m
par Aloha.host[107] y 173.163m
attr unit m
par Aloha.host[107] txrate 1000Bps
attr unit Bps
par Aloha.host[108] typename "\"Host\""
par Aloha.host[108] arrrate 3
par Aloha.host[108] packet_size 1B
attr unit B
par Aloha.host[108] x 70.1313m
attr unit m
par Aloha.host[108] y 29.3402m
attr unit m
par Aloha.host[108] txrate 1000Bps
attr unit Bps
par Aloha.host[109] typename "\"Host\""
par Aloha.host[109] arrrate 3
par Aloha.host[109] packet_size 1B
attr unit B
par Aloha.host[109] x 112.638m
attr unit m
par Aloha.host[109] y 20.6762m
attr unit m
par Aloha.host[109] txrate 1000Bps
attr unit Bps
par Aloha.host[110] typename "\"Host\""
par Aloha.host[110] arrrate 3
par Aloha.host[110] packet_size 1B
attr unit B
par Aloha.host[110] x 59.946m
attr unit m
par Aloha.host[110] y 98.1109m
attr unit m
par Aloha.host[110] txrate 1000Bps
attr unit Bps
par Aloha.host[111] typename "\"Host\""
par Aloha.host[111] arrrate 3
par Aloha.host[111] packet_size 1B
attr unit B
par Aloha.host[111] x 102.467m
attr unit m
par Aloha.host[111] y 5.83591m
attr unit m
par Aloha.host[111] txrate 1000Bps
attr unit Bps
par Aloha.host[112] typename "\"Host\""
par Aloha.host[112] arrrate 3
par Aloha.host[112] packet_size 1B
attr unit B
par Aloha.host[112] x 134.693m
attr unit m
par Aloha.host[112] y 118.972m
attr unit m
par Aloha.host[112] txrate 1000Bps
attr unit Bps
par Aloha.host[113] typename "\"Host\""
par Aloha.host[113] arrrate 3
par Aloha.host[113] packet_size 1B
attr unit B
par Aloha.host[113] x 31.8387m
attr unit m
par Aloha.host[113] y 41.1691m
attr unit m
par Aloha.host[113] txrate 1000Bps
attr unit Bps
par Aloha.host[114] typename "\"Host\""
par Aloha.host[114] arrrate 3
par Aloha.host[114] packet_size 1B
attr unit B
par Aloha.host[114] x 10.0955m
attr unit m
par Aloha.host[114] y 40.5606m
attr unit m
par Aloha.host[114] txrate 1000Bps
attr unit Bps
par Aloha.host[115] typename "\"Host\""
par Aloha.host[115] arrrate 3
par Aloha.host[115] packet_size 1B
attr unit B
par Aloha.host[115] x 67.5632m
attr unit m
par Aloha.host[115] y 168.825m
attr unit m
par Aloha.host[115] txrate 1000Bps
attr unit Bps
par Aloha.host[116] typename "\"Host\""
par Aloha.host[116] arrrate 3
par Aloha.host[116] packet_size 1B
attr unit B
par Aloha.host[116] x 21.6128m
attr unit m
par Aloha.host[116] y 12.3133m
attr unit m
par Aloha.host[116] txrate 1000Bps
attr unit Bps
par Aloha.host[117] typename "\"Host\""
par Aloha.host[117] arrrate 3
par Aloha.host[117] packet_size 1B
attr unit B
par Aloha.host[117] x 35.7806m
attr unit m
par Aloha.host[117] y 99.8461m
attr unit m
par Aloha.host[117] txrate 1000Bps
attr unit Bps
par Aloha.host[118] typename "\"Host\""
par Aloha.host[118] arrrate 3
par Aloha.host[118] packet_size 1B
attr unit B
par Aloha.host[118] x 177.165m
attr unit m
par Aloha.host[118] y 49.6934m
attr unit m
par Aloha.host[118] txrate 1000Bps
attr unit Bps
par Aloha.host[119] typename "\"Host\""
par Aloha.host[119] arrrate 3
par Aloha.host[119] packet_size 1B
attr unit B
par Aloha.host[119] x 73.073m
attr unit m
par Aloha.host[119] y 65.4288m
attr unit m
par Aloha.host[119] txrate 1000Bps
attr unit Bps
par Aloha.host[120] typename "\"Host\""
par Aloha.host[120] arrrate 3
par Aloha.host[120] packet_size 1B
attr unit B
par Aloha.host[120] x 43.7539m
attr unit m
par Aloha.host[120] y 0.583217m
attr unit m
par Aloha.host[120] txrate 1000Bps
attr unit Bps
par Aloha.host[121] typename "\"Host\""
par Aloha.host[121] arrrate 3
par Aloha.host[121] packet_size 1B
attr unit B
par Aloha.host[121] x 150.499m
attr unit m
par Aloha.host[121] y 59.0884m
attr unit m
par Aloha.host[121] txrate 1000Bps
attr unit Bps
par Aloha.host[122] typename "\"Host\""
par Aloha.host[122] arrrate 3
par Aloha.host[122] packet_size 1B
attr unit B
par Aloha.host[122] x 21.3759m
attr unit m
par Aloha.host[122] y 197.378m
attr unit m
par Aloha.host[122] txrate 1000Bps
attr unit Bps
par Aloha.host[123] typename "\"Host\""
par Aloha.host[123] arrrate 3
par Aloha.host[123] packet_size 1B
attr unit B
par Aloha.host[123] x 148.921m
attr unit m
par Aloha.host[123] y 47.6665m
attr unit m
par Aloha.host[123] txrate 1000Bps
attr unit Bps
par Aloha.host[124] typename "\"Host\""
par Aloha.host[124] arrrate 3
par Aloha.host[124] packet_size 1B
attr unit B
par Aloha.host[124] x 93.9571m
attr unit m
par Aloha.host[124] y 146.679m
attr unit m
par Aloha.host[124] txrate 1000Bps
attr unit Bps
par Aloha.host[125] typename "\"Host\""
par Aloha.host[125] arrrate 3
par Aloha.host[125] packet_size 1B
attr unit B
par Aloha.host[125] x 119.651m
attr unit m
par Aloha.host[125] y 192.439m
attr unit m
par Aloha.host[125] txrate 1000Bps
attr unit Bps
par Aloha.host[126] typename "\"Host\""
par Aloha.host[126] arrrate 3
par Aloha.host[126] packet_size 1B
attr unit B
par Aloha.host[126] x 29.524m
attr unit m
par Aloha.host[126] y 163.091m
attr unit m
par Aloha.host[126] txrate 1000Bps
attr unit Bps
par Aloha.host[127] typename "\"Host\""
par Aloha.host[127] arrrate 3
par Aloha.host[127] packet_size 1B
attr unit B
par Aloha.host[127] x 36.807m
attr unit m
par Aloha.host[127] y 138.845m
attr unit m
par Aloha.host[127] txrate 1000Bps
attr unit Bps
par Aloha.host[128] typename "\"Host\""
par Aloha.host[128] arrrate 3
par Aloha.host[128] packet_size 1B
attr unit B
par Aloha.host[128] x 129.014m
attr unit m
par Aloha.host[128] y 42.1392m
attr unit m
par Aloha.host[128] txrate 1000Bps
attr unit Bps
par Aloha.host[129] typename "\"Host\""
par Aloha.host[129] arrrate 3
par Aloha.host[129] packet_size 1B
attr unit B
par Aloha.host[129] x 9.7256m
attr unit m
par Aloha.host[129] y 103.569m
attr unit m
par Aloha.host[129] txrate 1000Bps
attr unit Bps
par Aloha.host[130] typename "\"Host\""
par Aloha.host[130] arrrate 3
par Aloha.host[130] packet_size 1B
attr unit B
par Aloha.host[130] x 49.7225m
attr unit m
par Aloha.host[130] y 189.934m
attr unit m
par Aloha.host[130] txrate 1000Bps
attr unit Bps
par Aloha.host[131] typename "\"Host\""
par Aloha.host[131] arrrate 3
par Aloha.host[131] packet_size 1B
attr unit B
par Aloha.host[131] x 108.482m
attr unit m
par Aloha.host[131] y 139.195m
attr unit m
par Aloha.host[131] txrate 1000Bps
attr unit Bps
par Aloha.host[132] typename "\"Host\""
par Aloha.host[132] arrrate 3
par Aloha.host[132] packet_size 1B
attr unit B
par Aloha.host[132] x 45.3547m
attr unit m
par Aloha.host[132] y 180.933m
attr unit m
par Aloha.host[132] txrate 1000Bps
attr unit Bps
par Aloha.host[133] typename "\"Host\""
par Aloha.host[133] arrrate 3
par Aloha.host[133] packet_size 1B
attr unit B
par Aloha.host[133] x 76.2823m
attr unit m
par Aloha.host[133] y 129.578m
attr unit m
par Aloha.host[133] txrate 1000Bps
attr unit Bps
par Aloha.host[134] typename "\"Host\""
par Aloha.host[134] arrrate 3
par Aloha.host[134] packet_size 1B
attr unit B
par Aloha.host[134] x 184.447m
attr unit m
par Aloha.host[134] y 69.0604m
attr unit m
par Aloha.host[134] txrate 1000Bps
attr unit Bps
par Aloha.host[135] typename "\"Host\""
par Aloha.host[135] arrrate 3
par Aloha.host[135] packet_size 1B
attr unit B
par Aloha.host[135] x 185.071m
attr unit m
par Aloha.host[135] y 13.0996m
attr unit m
par Aloha.host[135] txrate 1000Bps
attr unit Bps
par Aloha.host[136] typename "\"Host\""
par Aloha.host[136] arrrate 3
par Aloha.host[136] packet_size 1B
attr unit B
par Aloha.host[136] x 113.35m
attr unit m
par Aloha.host[136] y 44.1256m
attr unit m
par Aloha.host[136] txrate 1000Bps
attr unit Bps
par Aloha.host[137] typename "\"Host\""
par Aloha.host[137] arrrate 3
par Aloha.host[137] packet_size 1B
attr unit B
par Aloha.host[137] x 106.694m
attr unit m
par Aloha.host[137] y 27.4747m
attr unit m
par Aloha.host[137] txrate 1000Bps
attr unit Bps
par Aloha.host[138] typename "\"Host\""
par Aloha.host[138] arrrate 3
par Aloha.host[138] packet_size 1B
attr unit B
par Aloha.host[138] x 2.972m
attr unit m
par Aloha.host[138] y 148.859m
attr unit m
par Aloha.host[138] txrate 1000Bps
attr unit Bps
par Aloha.host[139] typename "\"Host\""
par Aloha.host[139] arrrate 3
par Aloha.host[139] packet_size 1B
attr unit B
par Aloha.host[139] x 195.58m
attr unit m
par Aloha.host[139] y 69.3381m
attr unit m
par Aloha.host[139] txrate 1000Bps
attr unit Bps
par Aloha.host[140] typename "\"Host\""
par Aloha.host[140] arrrate 3
par Aloha.host[140] packet_size 1B
attr unit B
par Aloha.host[140] x 114.606m
attr unit m
par Aloha.host[140] y 115.533m
attr unit m
par Aloha.host[140] txrate 1000Bps
attr unit Bps
par Aloha.host[141] typename "\"Host\""
par Aloha.host[141] arrrate 3
par Aloha.host[141] packet_size 1B
attr unit B
par Aloha.host[141] x 158.351m
attr unit m
par Aloha.host[141] y 33.6706m
attr unit m
par Aloha.host[141] txrate 1000Bps
attr unit Bps
par Aloha.host[142] typename "\"Host\""
par Aloha.host[142] arrrate 3
par Aloha.host[142] packet_size 1B
attr unit B
par Aloha.host[142] x 112.311m
attr unit m
par Aloha.host[142] y 7.59434m
attr unit m
par Aloha.host[142] txrate 1000Bps
attr unit Bps
par Aloha.host[143] typename "\"Host\""
par Aloha.host[143] arrrate 3
par Aloha.host[143] packet_size 1B
attr unit B
par Aloha.host[143] x 175.467m
attr unit m
par Aloha.host[143] y 163.435m
attr unit m
par Aloha.host[143] txrate 1000Bps
attr unit Bps
par Aloha.host[144] typename "\"Host\""
par Aloha.host[144] arrrate 3
par Aloha.host[144] packet_size 1B
attr unit B
par Aloha.host[144] x 116.839m
attr unit m
par Aloha.host[144] y 162.493m
attr unit m
par Aloha.host[144] txrate 1000Bps
attr unit Bps
par Aloha.host[145] typename "\"Host\""
par Aloha.host[145] arrrate 3
par Aloha.host[145] packet_size 1B
attr unit B
par Aloha.host[145] x 141.77m
attr unit m
par Aloha.host[145] y 37.6871m
attr unit m
par Aloha.host[145] txrate 1000Bps
attr unit Bps
par Aloha.host[146] typename "\"Host\""
par Aloha.host[146] arrrate 3
par Aloha.host[146] packet_size 1B
attr unit B
par Aloha.host[146] x 29.7067m
attr unit m
par Aloha.host[146] y 74.6125m
attr unit m
par Aloha.host[146] txrate 1000Bps
attr unit Bps
par Aloha.host[147] typename "\"Host\""
par Aloha.host[147] arrrate 3
par Aloha.host[147] packet_size 1B
attr unit B
par Aloha.host[147] x 85.6901m
attr unit m
par Aloha.host[147] y 148.838m
attr unit m
par Aloha.host[147] txrate 1000Bps
attr unit Bps
par Aloha.host[148] typename "\"Host\""
par Aloha.host[148] arrrate 3
par Aloha.host[148] packet_size 1B
attr unit B
par Aloha.host[148] x 138.778m
attr unit m
par Aloha.host[148] y 37.2496m
attr unit m
par Aloha.host[148] txrate 1000Bps
attr unit Bps
par Aloha.host[149] typename "\"Host\""
par Aloha.host[149] arrrate 3
par Aloha.host[149] packet_size 1B
attr unit B
par Aloha.host[149] x 20.9239m
attr unit m
par Aloha.host[149] y 82.7596m
attr unit m
par Aloha.host[149] txrate 1000Bps
attr unit Bps
par Aloha.host[150] typename "\"Host\""
par Aloha.host[150] arrrate 3
par Aloha.host[150] packet_size 1B
attr unit B
par Aloha.host[150] x 87.921m
attr unit m
par Aloha.host[150] y 46.2011m
attr unit m
par Aloha.host[150] txrate 1000Bps
attr unit Bps
par Aloha.host[151] typename "\"Host\""
par Aloha.host[151] arrrate 3
par Aloha.host[151] packet_size 1B
attr unit B
par Aloha.host[151] x 33.2404m
attr unit m
par Aloha.host[151] y 130.725m
attr unit m
par Aloha.host[151] txrate 1000Bps
attr unit Bps
par Aloha.host[152] typename "\"Host\""
par Aloha.host[152] arrrate 3
par Aloha.host[152] packet_size 1B
attr unit B
par Aloha.host[152] x 101.396m
attr unit m
par Aloha.host[152] y 152.875m
attr unit m
par Aloha.host[152] txrate 1000Bps
attr unit Bps
par Aloha.host[153] typename "\"Host\""
par Aloha.host[153] arrrate 3
par Aloha.host[153] packet_size 1B
attr unit B
par Aloha.host[153] x 163.807m
attr unit m
par Aloha.host[153] y 166.976m
attr unit m
par Aloha.host[153] txrate 1000Bps
attr unit Bps
par Aloha.host[154] typename "\"Host\""
par Aloha.host[154] arrrate 3
par Aloha.host[154] packet_size 1B
attr unit B
par Aloha.host[154] x 18.0213m
attr unit m
par Aloha.host[154] y 42.4426m
attr unit m
par Aloha.host[154] txrate 1000Bps
attr unit Bps
par Aloha.host[155] typename "\"Host\""
par Aloha.host[155] arrrate 3
par Aloha.host[155] packet_size 1B
attr unit B
par Aloha.host[155] x 160.014m
attr unit m
par Aloha.host[155] y 192.393m
attr unit m
par Aloha.host[155] txrate 1000Bps
attr unit Bps
par Aloha.host[156] typename "\"Host\""
par Aloha.host[156] arrrate 3
par Aloha.host[156] packet_size 1B
attr unit B
par Aloha.host[156] x 113.025m
attr unit m
par Aloha.host[156] y 52.2281m
attr unit m
par Aloha.host[156] txrate 1000Bps
attr unit Bps
par Aloha.host[157] typename "\"Host\""
par Aloha.host[157] arrrate 3
par Aloha.host[157] packet_size 1B
attr unit B
par Aloha.host[157] x 117.87m
attr unit m
par Aloha.host[157] y 172.754m
attr unit m
par Aloha.host[157] txrate 1000Bps
attr unit Bps
par Aloha.host[158] typename "\"Host\""
par Aloha.host[158] arrrate 3
par Aloha.host[158] packet_size 1B
attr unit B
par Aloha.host[158] x 39.6201m
attr unit m
par Aloha.host[158] y 25.3749m
attr unit m
par Aloha.host[158] txrate 1000Bps
attr unit Bps
par Aloha.host[159] typename "\"Host\""
par Aloha.host[159] arrrate 3
par Aloha.host[159] packet_size 1B
attr unit B
par Aloha.host[159] x 87.2237m
attr unit m
par Aloha.host[159] y 74.1804m
attr unit m
par Aloha.host[159] txrate 1000Bps
attr unit Bps
par Aloha.host[160] typename "\"Host\""
par Aloha.host[160] arrrate 3
par Aloha.host[160] packet_size 1B
attr unit B
par Aloha.host[160] x 59.1808m
attr unit m
par Aloha.host[160] y 134.387m
attr unit m
par Aloha.host[160] txrate 1000Bps
attr unit Bps
par Aloha.host[161] typename "\"Host\""
par Aloha.host[161] arrrate 3
par Aloha.host[161] packet_size 1B
attr unit B
par Aloha.host[161] x 7.51154m
attr unit m
par Aloha.host[161] y 186.77m
attr unit m
par Aloha.host[161] txrate 1000Bps
attr unit Bps
par Aloha.host[162] typename "\"Host\""
par Aloha.host[162] arrrate 3
par Aloha.host[162] packet_size 1B
attr unit B
par Aloha.host[162] x 6.13697m
attr unit m
par Aloha.host[162] y 111.78m
attr unit m
par Aloha.host[162] txrate 1000Bps
attr unit Bps
par Aloha.host[163] typename "\"Host\""
par Aloha.host[163] arrrate 3
par Aloha.host[163] packet_size 1B
attr unit B
par Aloha.host[163] x 90.621m
attr unit m
par Aloha.host[163] y 134.49m
attr unit m
par Aloha.host[163] txrate 1000Bps
attr unit Bps
par Aloha.host[164] typename "\"Host\""
par Aloha.host[164] arrrate 3
par Aloha.host[164] packet_size 1B
attr unit B
par Aloha.host[164] x 148.973m
attr unit m
par Aloha.host[164] y 15.4111m
attr unit m
par Aloha.host[164] txrate 1000Bps
attr unit Bps
par Aloha.host[165] typename "\"Host\""
par Aloha.host[165] arrrate 3
par Aloha.host[165] packet_size 1B
attr unit B
par Aloha.host[165] x 111.459m
attr unit m
par Aloha.host[165] y 49.9772m
attr unit m
par Aloha.host[165] txrate 1000Bps
attr unit Bps
par Aloha.host[166] typename "\"Host\""
par Aloha.host[166] arrrate 3
par Aloha.host[166] packet_size 1B
attr unit B
par Aloha.host[166] x 77.0227m
attr unit m
par Aloha.host[166] y 71.1163m
attr unit m
par Aloha.host[166] txrate 1000Bps
attr unit Bps
par Aloha.host[167] typename "\"Host\""
par Aloha.host[167] arrrate 3
par Aloha.host[167] packet_size 1B
attr unit B
par Aloha.host[167] x 33.6146m
attr unit m
par Aloha.host[167] y 4.68642m
attr unit m
par Aloha.host[167] txrate 1000Bps
attr unit Bps
par Aloha.host[168] typename "\"Host\""
par Aloha.host[168] arrrate 3
par Aloha.host[168] packet_size 1B
attr unit B
par Aloha.host[168] x 167.652m
attr unit m
par Aloha.host[168] y 187.026m
attr unit m
par Aloha.host[168] txrate 1000Bps
attr unit Bps
par Aloha.host[169] typename "\"Host\""
par Aloha.host[169] arrrate 3
par Aloha.host[169] packet_size 1B
attr unit B
par Aloha.host[169] x 119.81m
attr unit m
par Aloha.host[169] y 41.9195m
attr unit m
par Aloha.host[169] txrate 1000Bps
attr unit Bps
par Aloha.host[170] typename "\"Host\""
par Aloha.host[170] arrrate 3
par Aloha.host[170] packet_size 1B
attr unit B
par Aloha.host[170] x 156.543m
attr unit m
par Aloha.host[170] y 115.355m
attr unit m
par Aloha.host[170] txrate 1000Bps
attr unit Bps
par Aloha.host[171] typename "\"Host\""
par Aloha.host[171] arrrate 3
par Aloha.host[171] packet_size 1B
attr unit B
par Aloha.host[171] x 169.702m
attr unit m
par Aloha.host[171] y 116.209m
attr unit m
par Aloha.host[171] txrate 1000Bps
attr unit Bps
par Aloha.host[172] typename "\"Host\""
par Aloha.host[172] arrrate 3
par Aloha.host[172] packet_size 1B
attr unit B
par Aloha.host[172] x 120.633m
attr unit m
par Aloha.host[172] y 46.7842m
attr unit m
par Aloha.host[172] txrate 1000Bps
attr unit Bps
par Aloha.host[173] typename "\"Host\""
par Aloha.host[173] arrrate 3
par Aloha.host[173] packet_size 1B
attr unit B
par Aloha.host[173] x 156.212m
attr unit m
par Aloha.host[173] y 96.5958m
attr unit m
par Aloha.host[173] txrate 1000Bps
attr unit Bps
par Aloha.host[174] typename "\"Host\""
par Aloha.host[174] arrrate 3
par Aloha.host[174] packet_size 1B
attr unit B
par Aloha.host[174] x 123.147m
attr unit m
par Aloha.host[174] y 109.409m
attr unit m
par Aloha.host[174] txrate 1000Bps
attr unit Bps
par Aloha.host[175] typename "\"Host\""
par Aloha.host[175] arrrate 3
par Aloha.host[175] packet_size 1B
attr unit B
par Aloha.host[175] x 4.23304m
attr unit m
par Aloha.host[175] y 174.362m
attr unit m
par Aloha.host[175] txrate 1000Bps
attr unit Bps
par Aloha.host[176] typename "\"Host\""
par Aloha.host[176] arrrate 3
par Aloha.host[176] packet_size 1B
attr unit B
par Aloha.host[176] x 150.093m
attr unit m
par Aloha.host[176] y 192.807m
attr unit m
par Aloha.host[176] txrate 1000Bps
attr unit Bps
par Aloha.host[177] typename "\"Host\""
par Aloha.host[177] arrrate 3
par Aloha.host[177] packet_size 1B
attr unit B
par Aloha.host[177] x 35.2084m
attr unit m
par Aloha.host[177] y 32.3221m
attr unit m
par Aloha.host[177] txrate 1000Bps
attr unit Bps
par Aloha.host[178] typename "\"Host\""
par Aloha.host[178] arrrate 3
par Aloha.host[178] packet_size 1B
attr unit B
par Aloha.host[178] x 91.7028m
attr unit m
par Aloha.host[178] y 3.37804m
attr unit m
par Aloha.host[178] txrate 1000Bps
attr unit Bps
par Aloha.host[179] typename "\"Host\""
par Aloha.host[179] arrrate 3
par Aloha.host[179] packet_size 1B
attr unit B
par Aloha.host[179] x 102.625m
attr unit m
par Aloha.host[179] y 3.406m
attr unit m
par Aloha.host[179] txrate 1000Bps
attr unit Bps
par Aloha.host[180] typename "\"Host\""
par Aloha.host[180] arrrate 3
par Aloha.host[180] packet_size 1B
attr unit B
par Aloha.host[180] x 96.8042m
attr unit m
par Aloha.host[180] y 39.767m
attr unit m
par Aloha.host[180] txrate 1000Bps
attr unit Bps
par Aloha.host[181] typename "\"Host\""
par Aloha.host[181] arrrate 3
par Aloha.host[181] packet_size 1B
attr unit B
par Aloha.host[181] x 168.877m
attr unit m
par Aloha.host[181] y 179.709m
attr unit m
par Aloha.host[181] txrate 1000Bps
attr unit Bps
par Aloha.host[182] typename "\"Host\""
par Aloha.host[182] arrrate 3
par Aloha.host[182] packet_size 1B
attr unit B
par Aloha.host[182] x 34.9628m
attr unit m
par Aloha.host[182] y 157.171m
attr unit m
par Aloha.host[182] txrate 1000Bps
attr unit Bps
par Aloha.host[183] typename "\"Host\""
par Aloha.host[183] arrrate 3
par Aloha.host[183] packet_size 1B
attr unit B
par Aloha.host[183] x 2.92697m
attr unit m
par Aloha.host[183] y 137.184m
attr unit m
par Aloha.host[183] txrate 1000Bps
attr unit Bps
par Aloha.host[184] typename "\"Host\""
par Aloha.host[184] arrrate 3
par Aloha.host[184] packet_size 1B
attr unit B
par Aloha.host[184] x 169.753m
attr unit m
par Aloha.host[184] y 65.3065m
attr unit m
par Aloha.host[184] txrate 1000Bps
attr unit Bps
par Aloha.host[185] typename "\"Host\""
par Aloha.host[185] arrrate 3
par Aloha.host[185] packet_size 1B
attr unit B
par Aloha.host[185] x 148.535m
attr unit m
par Aloha.host[185] y 81.6981m
attr unit m
par Aloha.host[185] txrate 1000Bps
attr unit Bps
par Aloha.host[186] typename "\"Host\""
par Aloha.host[186] arrrate 3
par Aloha.host[186] packet_size 1B
attr unit B
par Aloha.host[186] x 91.3395m
attr unit m
par Aloha.host[186] y 114.775m
attr unit m
par Aloha.host[186] txrate 1000Bps
attr unit Bps
par Aloha.host[187] typename "\"Host\""
par Aloha.host[187] arrrate 3
par Aloha.host[187] packet_size 1B
attr unit B
par Aloha.host[187] x 83.3797m
attr unit m
par Aloha.host[187] y 0.197334m
attr unit m
par Aloha.host[187] txrate 1000Bps
attr unit Bps
par Aloha.host[188] typename "\"Host\""
par Aloha.host[188] arrrate 3
par Aloha.host[188] packet_size 1B
attr unit B
par Aloha.host[188] x 23.3459m
attr unit m
par Aloha.host[188] y 149.971m
attr unit m
par Aloha.host[188] txrate 1000Bps
attr unit Bps
par Aloha.host[189] typename "\"Host\""
par Aloha.host[189] arrrate 3
par Aloha.host[189] packet_size 1B
attr unit B
par Aloha.host[189] x 67.7358m
attr unit m
par Aloha.host[189] y 150.168m
attr unit m
par Aloha.host[189] txrate 1000Bps
attr unit Bps
par Aloha.host[190] typename "\"Host\""
par Aloha.host[190] arrrate 3
par Aloha.host[190] packet_size 1B
attr unit B
par Aloha.host[190] x 18.9318m
attr unit m
par Aloha.host[190] y 76.6545m
attr unit m
par Aloha.host[190] txrate 1000Bps
attr unit Bps
par Aloha.host[191] typename "\"Host\""
par Aloha.host[191] arrrate 3
par Aloha.host[191] packet_size 1B
attr unit B
par Aloha.host[191] x 143.166m
attr unit m
par Aloha.host[191] y 74.5877m
attr unit m
par Aloha.host[191] txrate 1000Bps
attr unit Bps
par Aloha.host[192] typename "\"Host\""
par Aloha.host[192] arrrate 3
par Aloha.host[192] packet_size 1B
attr unit B
par Aloha.host[192] x 15.4171m
attr unit m
par Aloha.host[192] y 168.536m
attr unit m
par Aloha.host[192] txrate 1000Bps
attr unit Bps
par Aloha.host[193] typename "\"Host\""
par Aloha.host[193] arrrate 3
par Aloha.host[193] packet_size 1B
attr unit B
par Aloha.host[193] x 41.1901m
attr unit m
par Aloha.host[193] y 151.859m
attr unit m
par Aloha.host[193] txrate 1000Bps
attr unit Bps
par Aloha.host[194] typename "\"Host\""
par Aloha.host[194] arrrate 3
par Aloha.host[194] packet_size 1B
attr unit B
par Aloha.host[194] x 114.755m
attr unit m
par Aloha.host[194] y 33.1565m
attr unit m
par Aloha.host[194] txrate 1000Bps
attr unit Bps
par Aloha.host[195] typename "\"Host\""
par Aloha.host[195] arrrate 3
par Aloha.host[195] packet_size 1B
attr unit B
par Aloha.host[195] x 58.7663m
attr unit m
par Aloha.host[195] y 150.831m
attr unit m
par Aloha.host[195] txrate 1000Bps
attr unit Bps
par Aloha.host[196] typename "\"Host\""
par Aloha.host[196] arrrate 3
par Aloha.host[196] packet_size 1B
attr unit B
par Aloha.host[196] x 131.145m
attr unit m
par Aloha.host[196] y 119.199m
attr unit m
par Aloha.host[196] txrate 1000Bps
attr unit Bps
par Aloha.host[197] typename "\"Host\""
par Aloha.host[197] arrrate 3
par Aloha.host[197] packet_size 1B
attr unit B
par Aloha.host[197] x 160.714m
attr unit m
par Aloha.host[197] y 185.362m
attr unit m
par Aloha.host[197] txrate 1000Bps
attr unit Bps
par Aloha.host[198] typename "\"Host\""
par Aloha.host[198] arrrate 3
par Aloha.host[198] packet_size 1B
attr unit B
par Aloha.host[198] x 70.2427m
attr unit m
par Aloha.host[198] y 83.0198m
attr unit m
par Aloha.host[198] txrate 1000Bps
attr unit Bps
par Aloha.host[199] typename "\"Host\""
par Aloha.host[199] arrrate 3
par Aloha.host[199] packet_size 1B
attr unit B
par Aloha.host[199] x 18.6881m
attr unit m
par Aloha.host[199] y 19.3712m
attr unit m
par Aloha.host[199] txrate 1000Bps
attr unit Bps
par Aloha.host[200] typename "\"Host\""
par Aloha.host[200] arrrate 3
par Aloha.host[200] packet_size 1B
attr unit B
par Aloha.host[200] x 162.663m
attr unit m
par Aloha.host[200] y 179.231m
attr unit m
par Aloha.host[200] txrate 1000Bps
attr unit Bps
par Aloha.host[201] typename "\"Host\""
par Aloha.host[201] arrrate 3
par Aloha.host[201] packet_size 1B
attr unit B
par Aloha.host[201] x 156.973m
attr unit m
par Aloha.host[201] y 141.99m
attr unit m
par Aloha.host[201] txrate 1000Bps
attr unit Bps
par Aloha.host[202] typename "\"Host\""
par Aloha.host[202] arrrate 3
par Aloha.host[202] packet_size 1B
attr unit B
par Aloha.host[202] x 78.6838m
attr unit m
par Aloha.host[202] y 84.6011m
attr unit m
par Aloha.host[202] txrate 1000Bps
attr unit Bps
par Aloha.host[203] typename "\"Host\""
par Aloha.host[203] arrrate 3
par Aloha.host[203] packet_size 1B
attr unit B
par Aloha.host[203] x 172.896m
attr unit m
par Aloha.host[203] y 59.074m
attr unit m
par Aloha.host[203] txrate 1000Bps
attr unit Bps
par Aloha.host[204] typename "\"Host\""
par Aloha.host[204] arrrate 3
par Aloha.host[204] packet_size 1B
attr unit B
par Aloha.host[204] x 76.8062m
attr unit m
par Aloha.host[204] y 35.7177m
attr unit m
par Aloha.host[204] txrate 1000Bps
attr unit Bps
par Aloha.host[205] typename "\"Host\""
par Aloha.host[205] arrrate 3
par Aloha.host[205] packet_size 1B
attr unit B
par Aloha.host[205] x 51.4606m
attr unit m
par Aloha.host[205] y 185.699m
attr unit m
par Aloha.host[205] txrate 1000Bps
attr unit Bps
par Aloha.host[206] typename "\"Host\""
par Aloha.host[206] arrrate 3
par Aloha.host[206] packet_size 1B
attr unit B
par Aloha.host[206] x 165.88m
attr unit m
par Aloha.host[206] y 55.61m
attr unit m
par Aloha.host[206] txrate 1000Bps
attr unit Bps
par Aloha.host[207] typename "\"Host\""
par Aloha.host[207] arrrate 3
par Aloha.host[207] packet_size 1B
attr unit B
par Aloha.host[207] x 147.277m
attr unit m
par Aloha.host[207] y 89.5418m
attr unit m
par Aloha.host[207] txrate 1000Bps
attr unit Bps
par Aloha.host[208] typename "\"Host\""
par Aloha.host[208] arrrate 3
par Aloha.host[208] packet_size 1B
attr unit B
par Aloha.host[208] x 101.52m
attr unit m
par Aloha.host[208] y 121.975m
attr unit m
par Aloha.host[208] txrate 1000Bps
attr unit Bps
par Aloha.host[209] typename "\"Host\""
par Aloha.host[209] arrrate 3
par Aloha.host[209] packet_size 1B
attr unit B
par Aloha.host[209] x 128.865m
attr unit m
par Aloha.host[209] y 72.1579m
attr unit m
par Aloha.host[209] txrate 1000Bps
attr unit Bps
par Aloha.host[210] typename "\"Host\""
par Aloha.host[210] arrrate 3
par Aloha.host[210] packet_size 1B
attr unit B
par Aloha.host[210] x 42.6373m
attr unit m
par Aloha.host[210] y 89.0491m
attr unit m
par Aloha.host[210] txrate 1000Bps
attr unit Bps
par Aloha.host[211] typename "\"Host\""
par Aloha.host[211] arrrate 3
par Aloha.host[211] packet_size 1B
attr unit B
par Aloha.host[211] x 179.142m
attr unit m
par Aloha.host[211] y 8.85202m
attr unit m
par Aloha.host[211] txrate 1000Bps
attr unit Bps
par Aloha.host[212] typename "\"Host\""
par Aloha.host[212] arrrate 3
par Aloha.host[212] packet_size 1B
attr unit B
par Aloha.host[212] x 193.189m
attr unit m
par Aloha.host[212] y 49.4991m
attr unit m
par Aloha.host[212] txrate 1000Bps
attr unit Bps
par Aloha.host[213] typename "\"Host\""
par Aloha.host[213] arrrate 3
par Aloha.host[213] packet_size 1B
attr unit B
par Aloha.host[213] x 63.4003m
attr unit m
par Aloha.host[213] y 93.0267m
attr unit m
par Aloha.host[213] txrate 1000Bps
attr unit Bps
par Aloha.host[214] typename "\"Host\""
par Aloha.host[214] arrrate 3
par Aloha.host[214] packet_size 1B
attr unit B
par Aloha.host[214] x 173.111m
attr unit m
par Aloha.host[214] y 176.583m
attr unit m
par Aloha.host[214] txrate 1000Bps
attr unit Bps
par Aloha.host[215] typename "\"Host\""
par Aloha.host[215] arrrate 3
par Aloha.host[215] packet_size 1B
attr unit B
par Aloha.host[215] x 62.0567m
attr unit m
par Aloha.host[215] y 36.1841m
attr unit m
par Aloha.host[215] txrate 1000Bps
attr unit Bps
par Aloha.host[216] typename "\"Host\""
par Aloha.host[216] arrrate 3
par Aloha.host[216] packet_size 1B
attr unit B
par Aloha.host[216] x 5.05279m
attr unit m
par Aloha.host[216] y 71.2349m
attr unit m
par Aloha.host[216] txrate 1000Bps
attr unit Bps
par Aloha.host[217] typename "\"Host\""
par Aloha.host[217] arrrate 3
par Aloha.host[217] packet_size 1B
attr unit B
par Aloha.host[217] x 9.83903m
attr unit m
par Aloha.host[217] y 60.9983m
attr unit m
par Aloha.host[217] txrate 1000Bps
attr unit Bps
par Aloha.host[218] typename "\"Host\""
par Aloha.host[218] arrrate 3
par Aloha.host[218] packet_size 1B
attr unit B
par Aloha.host[218] x 36.9254m
attr unit m
par Aloha.host[218] y 145.22m
attr unit m
par Aloha.host[218] txrate 1000Bps
attr unit Bps
par Aloha.host[219] typename "\"Host\""
par Aloha.host[219] arrrate 3
par Aloha.host[219] packet_size 1B
attr unit B
par Aloha.host[219] x 13.8067m
attr unit m
par Aloha.host[219] y 53.6231m
attr unit m
par Aloha.host[219] txrate 1000Bps
attr unit Bps
par Aloha.host[220] typename "\"Host\""
par Aloha.host[220] arrrate 3
par Aloha.host[220] packet_size 1B
attr unit B
par Aloha.host[220] x 51.4951m
attr unit m
par Aloha.host[220] y 69.0392m
attr unit m
par Aloha.host[220] txrate 1000Bps
attr unit Bps
par Aloha.host[221] typename "\"Host\""
par Aloha.host[221] arrrate 3
par Aloha.host[221] packet_size 1B
attr unit B
par Aloha.host[221] x 182.716m
attr unit m
par Aloha.host[221] y 70.7444m
attr unit m
par Aloha.host[221] txrate 1000Bps
attr unit Bps
par Aloha.host[222] typename "\"Host\""
par Aloha.host[222] arrrate 3
par Aloha.host[222] packet_size 1B
attr unit B
par Aloha.host[222] x 91.5699m
attr unit m
par Aloha.host[222] y 52.6228m
attr unit m
par Aloha.host[222] txrate 1000Bps
attr unit Bps
par Aloha.host[223] typename "\"Host\""
par Aloha.host[223] arrrate 3
par Aloha.host[223] packet_size 1B
attr unit B
par Aloha.host[223] x 26.0424m
attr unit m
par Aloha.host[223] y 108.553m
attr unit m
par Aloha.host[223] txrate 1000Bps
attr unit Bps
par Aloha.host[224] typename "\"Host\""
par Aloha.host[224] arrrate 3
par Aloha.host[224] packet_size 1B
attr unit B
par Aloha.host[224] x 161.978m
attr unit m
par Aloha.host[224] y 51.2296m
attr unit m
par Aloha.host[224] txrate 1000Bps
attr unit Bps
par Aloha.host[225] typename "\"Host\""
par Aloha.host[225] arrrate 3
par Aloha.host[225] packet_size 1B
attr unit B
par Aloha.host[225] x 80.694m
attr unit m
par Aloha.host[225] y 61.1675m
attr unit m
par Aloha.host[225] txrate 1000Bps
attr unit Bps
par Aloha.host[226] typename "\"Host\""
par Aloha.host[226] arrrate 3
par Aloha.host[226] packet_size 1B
attr unit B
par Aloha.host[226] x 4.88653m
attr unit m
par Aloha.host[226] y 19.7342m
attr unit m
par Aloha.host[226] txrate 1000Bps
attr unit Bps
par Aloha.host[227] typename "\"Host\""
par Aloha.host[227] arrrate 3
par Aloha.host[227] packet_size 1B
attr unit B
par Aloha.host[227] x 171.366m
attr unit m
par Aloha.host[227] y 164.274m
attr unit m
par Aloha.host[227] txrate 1000Bps
attr unit Bps
par Aloha.host[228] typename "\"Host\""
par Aloha.host[228] arrrate 3
par Aloha.host[228] packet_size 1B
attr unit B
par Aloha.host[228] x 54.859m
attr unit m
par Aloha.host[228] y 82.0835m
attr unit m
par Aloha.host[228] txrate 1000Bps
attr unit Bps
par Aloha.host[229] typename "\"Host\""
par Aloha.host[229] arrrate 3
par Aloha.host[229] packet_size 1B
attr unit B
par Aloha.host[229] x 141.821m
attr unit m
par Aloha.host[229] y 81.7984m
attr unit m
par Aloha.host[229] txrate 1000Bps
attr unit Bps
par Aloha.host[230] typename "\"Host\""
par Aloha.host[230] arrrate 3
par Aloha.host[230] packet_size 1B
attr unit B
par Aloha.host[230] x 71.1545m
attr unit m
par Aloha.host[230] y 107.806m
attr unit m
par Aloha.host[230] txrate 1000Bps
attr unit Bps
par Aloha.host[231] typename "\"Host\""
par Aloha.host[231] arrrate 3
par Aloha.host[231] packet_size 1B
attr unit B
par Aloha.host[231] x 158.862m
attr unit m
par Aloha.host[231] y 121.634m
attr unit m
par Aloha.host[231] txrate 1000Bps
attr unit Bps
par Aloha.host[232] typename "\"Host\""
par Aloha.host[232] arrrate 3
par Aloha.host[232] packet_size 1B
attr unit B
par Aloha.host[232] x 168.924m
attr unit m
par Aloha.host[232] y 113.735m
attr unit m
par Aloha.host[232] txrate 1000Bps
attr unit Bps
par Aloha.host[233] typename "\"Host\""
par Aloha.host[233] arrrate 3
par Aloha.host[233] packet_size 1B
attr unit B
par Aloha.host[233] x 107.63m
attr unit m
par Aloha.host[233] y 15.8733m
attr unit m
par Aloha.host[233] txrate 1000Bps
attr unit Bps
par Aloha.host[234] typename "\"Host\""
par Aloha.host[234] arrrate 3
par Aloha.host[234] packet_size 1B
attr unit B
par Aloha.host[234] x 111.817m
attr unit m
par Aloha.host[234] y 197.416m
attr unit m
par Aloha.host[234] txrate 1000Bps
attr unit Bps
par Aloha.host[235] typename "\"Host\""
par Aloha.host[235] arrrate 3
par Aloha.host[235] packet_size 1B
attr unit B
par Aloha.host[235] x 24.502m
attr unit m
par Aloha.host[235] y 73.1705m
attr unit m
par Aloha.host[235] txrate 1000Bps
attr unit Bps
par Aloha.host[236] typename "\"Host\""
par Aloha.host[236] arrrate 3
par Aloha.host[236] packet_size 1B
attr unit B
par Aloha.host[236] x 75.5284m
attr unit m
par Aloha.host[236] y 61.7148m
attr unit m
par Aloha.host[236] txrate 1000Bps
attr unit Bps
par Aloha.host[237] typename "\"Host\""
par Aloha.host[237] arrrate 3
par Aloha.host[237] packet_size 1B
attr unit B
par Aloha.host[237] x 85.7495m
attr unit m
par Aloha.host[237] y 80.3537m
attr unit m
par Aloha.host[237] txrate 1000Bps
attr unit Bps
par Aloha.host[238] typename "\"Host\""
par Aloha.host[238] arrrate 3
par Aloha.host[238] packet_size 1B
attr unit B
par Aloha.host[238] x 102.242m
attr unit m
par Aloha.host[238] y 7.67816m
attr unit m
par Aloha.host[238] txrate 1000Bps
attr unit Bps
par Aloha.host[239] typename "\"Host\""
par Aloha.host[239] arrrate 3
par Aloha.host[239] packet_size 1B
attr unit B
par Aloha.host[239] x 178.353m
attr unit m
par Aloha.host[239] y 10.442m
attr unit m
par Aloha.host[239] txrate 1000Bps
attr unit Bps
par Aloha.host[240] typename "\"Host\""
par Aloha.host[240] arrrate 3
par Aloha.host[240] packet_size 1B
attr unit B
par Aloha.host[240] x 60.0421m
attr unit m
par Aloha.host[240] y 41.9278m
attr unit m
par Aloha.host[240] txrate 1000Bps
attr unit Bps
par Aloha.host[241] typename "\"Host\""
par Aloha.host[241] arrrate 3
par Aloha.host[241] packet_size 1B
attr unit B
par Aloha.host[241] x 79.2884m
attr unit m
par Aloha.host[241] y 53.4234m
attr unit m
par Aloha.host[241] txrate 1000Bps
attr unit Bps
par Aloha.host[242] typename "\"Host\""
par Aloha.host[242] arrrate 3
par Aloha.host[242] packet_size 1B
attr unit B
par Aloha.host[242] x 158.655m
attr unit m
par Aloha.host[242] y 4.03619m
attr unit m
par Aloha.host[242] txrate 1000Bps
attr unit Bps
par Aloha.host[243] typename "\"Host\""
par Aloha.host[243] arrrate 3
par Aloha.host[243] packet_size 1B
attr unit B
par Aloha.host[243] x 82.4552m
attr unit m
par Aloha.host[243] y 82.2251m
attr unit m
par Aloha.host[243] txrate 1000Bps
attr unit Bps
par Aloha.host[244] typename "\"Host\""
par Aloha.host[244] arrrate 3
par Aloha.host[244] packet_size 1B
attr unit B
par Aloha.host[244] x 36.9735m
attr unit m
par Aloha.host[244] y 108.141m
attr unit m
par Aloha.host[244] txrate 1000Bps
attr unit Bps
par Aloha.host[245] typename "\"Host\""
par Aloha.host[245] arrrate 3
par Aloha.host[245] packet_size 1B
attr unit B
par Aloha.host[245] x 168.049m
attr unit m
par Aloha.host[245] y 144.696m
attr unit m
par Aloha.host[245] txrate 1000Bps
attr unit Bps
par Aloha.host[246] typename "\"Host\""
par Aloha.host[246] arrrate 3
par Aloha.host[246] packet_size 1B
attr unit B
par Aloha.host[246] x 113.854m
attr unit m
par Aloha.host[246] y 176.657m
attr unit m
par Aloha.host[246] txrate 1000Bps
attr unit Bps
par Aloha.host[247] typename "\"Host\""
par Aloha.host[247] arrrate 3
par Aloha.host[247] packet_size 1B
attr unit B
par Aloha.host[247] x 12.01m
attr unit m
par Aloha.host[247] y 30.9928m
attr unit m
par Aloha.host[247] txrate 1000Bps
attr unit Bps
par Aloha.host[248] typename "\"Host\""
par Aloha.host[248] arrrate 3
par Aloha.host[248] packet_size 1B
attr unit B
par Aloha.host[248] x 197.783m
attr unit m
par Aloha.host[248] y 91.4498m
attr unit m
par Aloha.host[248] txrate 1000Bps
attr unit Bps
par Aloha.host[249] typename "\"Host\""
par Aloha.host[249] arrrate 3
par Aloha.host[249] packet_size 1B
attr unit B
par Aloha.host[249] x 45.7565m
attr unit m
par Aloha.host[249] y 193.781m
attr unit m
par Aloha.host[249] txrate 1000Bps
attr unit Bps
par Aloha.host[250] typename "\"Host\""
par Aloha.host[250] arrrate 3
par Aloha.host[250] packet_size 1B
attr unit B
par Aloha.host[250] x 122.94m
attr unit m
par Aloha.host[250] y 62.7813m
attr unit m
par Aloha.host[250] txrate 1000Bps
attr unit Bps
par Aloha.host[251] typename "\"Host\""
par Aloha.host[251] arrrate 3
par Aloha.host[251] packet_size 1B
attr unit B
par Aloha.host[251] x 73.6053m
attr unit m
par Aloha.host[251] y 189.023m
attr unit m
par Aloha.host[251] txrate 1000Bps
attr unit Bps
par Aloha.host[252] typename "\"Host\""
par Aloha.host[252] arrrate 3
par Aloha.host[252] packet_size 1B
attr unit B
par Aloha.host[252] x 160.555m
attr unit m
par Aloha.host[252] y 53.9469m
attr unit m
par Aloha.host[252] txrate 1000Bps
attr unit Bps
par Aloha.host[253] typename "\"Host\""
par Aloha.host[253] arrrate 3
par Aloha.host[253] packet_size 1B
attr unit B
par Aloha.host[253] x 125.512m
attr unit m
par Aloha.host[253] y 9.92403m
attr unit m
par Aloha.host[253] txrate 1000Bps
attr unit Bps
par Aloha.host[254] typename "\"Host\""
par Aloha.host[254] arrrate 3
par Aloha.host[254] packet_size 1B
attr unit B
par Aloha.host[254] x 164.243m
attr unit m
par Aloha.host[254] y 126.299m
attr unit m
par Aloha.host[254] txrate 1000Bps
attr unit Bps
par Aloha.host[255] typename "\"Host\""
par Aloha.host[255] arrrate 3
par Aloha.host[255] packet_size 1B
attr unit B
par Aloha.host[255] x 57.6506m
attr unit m
par Aloha.host[255] y 75.512m
attr unit m
par Aloha.host[255] txrate 1000Bps
attr unit Bps
par Aloha.host[256] typename "\"Host\""
par Aloha.host[256] arrrate 3
par Aloha.host[256] packet_size 1B
attr unit B
par Aloha.host[256] x 54.959m
attr unit m
par Aloha.host[256] y 45.5685m
attr unit m
par Aloha.host[256] txrate 1000Bps
attr unit Bps
par Aloha.host[257] typename "\"Host\""
par Aloha.host[257] arrrate 3
par Aloha.host[257] packet_size 1B
attr unit B
par Aloha.host[257] x 120.21m
attr unit m
par Aloha.host[257] y 47.5818m
attr unit m
par Aloha.host[257] txrate 1000Bps
attr unit Bps
par Aloha.host[258] typename "\"Host\""
par Aloha.host[258] arrrate 3
par Aloha.host[258] packet_size 1B
attr unit B
par Aloha.host[258] x 187.703m
attr unit m
par Aloha.host[258] y 49.0362m
attr unit m
par Aloha.host[258] txrate 1000Bps
attr unit Bps
par Aloha.host[259] typename "\"Host\""
par Aloha.host[259] arrrate 3
par Aloha.host[259] packet_size 1B
attr unit B
par Aloha.host[259] x 141.459m
attr unit m
par Aloha.host[259] y 132.519m
attr unit m
par Aloha.host[259] txrate 1000Bps
attr unit Bps
par Aloha.host[260] typename "\"Host\""
par Aloha.host[260] arrrate 3
par Aloha.host[260] packet_size 1B
attr unit B
par Aloha.host[260] x 52.6806m
attr unit m
par Aloha.host[260] y 69.701m
attr unit m
par Aloha.host[260] txrate 1000Bps
attr unit Bps
par Aloha.host[261] typename "\"Host\""
par Aloha.host[261] arrrate 3
par Aloha.host[261] packet_size 1B
attr unit B
par Aloha.host[261] x 24.4672m
attr unit m
par Aloha.host[261] y 76.9686m
attr unit m
par Aloha.host[261] txrate 1000Bps
attr unit Bps
par Aloha.host[262] typename "\"Host\""
par Aloha.host[262] arrrate 3
par Aloha.host[262] packet_size 1B
attr unit B
par Aloha.host[262] x 91.7448m
attr unit m
par Aloha.host[262] y 164.083m
attr unit m
par Aloha.host[262] txrate 1000Bps
attr unit Bps
par Aloha.host[263] typename "\"Host\""
par Aloha.host[263] arrrate 3
par Aloha.host[263] packet_size 1B
attr unit B
par Aloha.host[263] x 194.962m
attr unit m
par Aloha.host[263] y 179.004m
attr unit m
par Aloha.host[263] txrate 1000Bps
attr unit Bps
par Aloha.host[264] typename "\"Host\""
par Aloha.host[264] arrrate 3
par Aloha.host[264] packet_size 1B
attr unit B
par Aloha.host[264] x 136.115m
attr unit m
par Aloha.host[264] y 54.5909m
attr unit m
par Aloha.host[264] txrate 1000Bps
attr unit Bps
par Aloha.host[265] typename "\"Host\""
par Aloha.host[265] arrrate 3
par Aloha.host[265] packet_size 1B
attr unit B
par Aloha.host[265] x 38.6507m
attr unit m
par Aloha.host[265] y 175.002m
attr unit m
par Aloha.host[265] txrate 1000Bps
attr unit Bps
par Aloha.host[266] typename "\"Host\""
par Aloha.host[266] arrrate 3
par Aloha.host[266] packet_size 1B
attr unit B
par Aloha.host[266] x 9.34785m
attr unit m
par Aloha.host[266] y 175.616m
attr unit m
par Aloha.host[266] txrate 1000Bps
attr unit Bps
par Aloha.host[267] typename "\"Host\""
par Aloha.host[267] arrrate 3
par Aloha.host[267] packet_size 1B
attr unit B
par Aloha.host[267] x 190.529m
attr unit m
par Aloha.host[267] y 157.266m
attr unit m
par Aloha.host[267] txrate 1000Bps
attr unit Bps
par Aloha.host[268] typename "\"Host\""
par Aloha.host[268] arrrate 3
par Aloha.host[268] packet_size 1B
attr unit B
par Aloha.host[268] x 171.73m
attr unit m
par Aloha.host[268] y 1.12182m
attr unit m
par Aloha.host[268] txrate 1000Bps
attr unit Bps
par Aloha.host[269] typename "\"Host\""
par Aloha.host[269] arrrate 3
par Aloha.host[269] packet_size 1B
attr unit B
par Aloha.host[269] x 165.581m
attr unit m
par Aloha.host[269] y 50.5916m
attr unit m
par Aloha.host[269] txrate 1000Bps
attr unit Bps
par Aloha.host[270] typename "\"Host\""
par Aloha.host[270] arrrate 3
par Aloha.host[270] packet_size 1B
attr unit B
par Aloha.host[270] x 192.78m
attr unit m
par Aloha.host[270] y 38.6733m
attr unit m
par Aloha.host[270] txrate 1000Bps
attr unit Bps
par Aloha.host[271] typename "\"Host\""
par Aloha.host[271] arrrate 3
par Aloha.host[271] packet_size 1B
attr unit B
par Aloha.host[271] x 119.787m
attr unit m
par Aloha.host[271] y 82.1844m
attr unit m
par Aloha.host[271] txrate 1000Bps
attr unit Bps
par Aloha.host[272] typename "\"Host\""
par Aloha.host[272] arrrate 3
par Aloha.host[272] packet_size 1B
attr unit B
par Aloha.host[272] x 186.183m
attr unit m
par Aloha.host[272] y 89.3412m
attr unit m
par Aloha.host[272] txrate 1000Bps
attr unit Bps
par Aloha.host[273] typename "\"Host\""
par Aloha.host[273] arrrate 3
par Aloha.host[273] packet_size 1B
attr unit B
par Aloha.host[273] x 29.3538m
attr unit m
par Aloha.host[273] y 158.749m
attr unit m
par Aloha.host[273] txrate 1000Bps
attr unit Bps
par Aloha.host[274] typename "\"Host\""
par Aloha.host[274] arrrate 3
par Aloha.host[274] packet_size 1B
attr unit B
par Aloha.host[274] x 22.7921m
attr unit m
par Aloha.host[274] y 144.647m
attr unit m
par Aloha.host[274] txrate 1000Bps
attr unit Bps
par Aloha.host[275] typename "\"Host\""
par Aloha.host[275] arrrate 3
par Aloha.host[275] packet_size 1B
attr unit B
par Aloha.host[275] x 74.4058m
attr unit m
par Aloha.host[275] y 0.0212641m
attr unit m
par Aloha.host[275] txrate 1000Bps
attr unit Bps
par Aloha.host[276] typename "\"Host\""
par Aloha.host[276] arrrate 3
par Aloha.host[276] packet_size 1B
attr unit B
par Aloha.host[276] x 153.312m
attr unit m
par Aloha.host[276] y 112.748m
attr unit m
par Aloha.host[276] txrate 1000Bps
attr unit Bps
par Aloha.host[277] typename "\"Host\""
par Aloha.host[277] arrrate 3
par Aloha.host[277] packet_size 1B
attr unit B
par Aloha.host[277] x 64.2284m
attr unit m
par Aloha.host[277] y 165.706m
attr unit m
par Aloha.host[277] txrate 1000Bps
attr unit Bps
par Aloha.host[278] typename "\"Host\""
par Aloha.host[278] arrrate 3
par Aloha.host[278] packet_size 1B
attr unit B
par Aloha.host[278] x 127.607m
attr unit m
par Aloha.host[278] y 0.474198m
attr unit m
par Aloha.host[278] txrate 1000Bps
attr unit Bps
par Aloha.host[279] typename "\"Host\""
par Aloha.host[279] arrrate 3
par Aloha.host[279] packet_size 1B
attr unit B
par Aloha.host[279] x 1.84422m
attr unit m
par Aloha.host[279] y 63.1576m
attr unit m
par Aloha.host[279] txrate 1000Bps
attr unit Bps
par Aloha.host[280] typename "\"Host\""
par Aloha.host[280] arrrate 3
par Aloha.host[280] packet_size 1B
attr unit B
par Aloha.host[280] x 108.693m
attr unit m
par Aloha.host[280] y 142.307m
attr unit m
par Aloha.host[280] txrate 1000Bps
attr unit Bps
par Aloha.host[281] typename "\"Host\""
par Aloha.host[281] arrrate 3
par Aloha.host[281] packet_size 1B
attr unit B
par Aloha.host[281] x 67.5509m
attr unit m
par Aloha.host[281] y 65.2743m
attr unit m
par Aloha.host[281] txrate 1000Bps
attr unit Bps
par Aloha.host[282] typename "\"Host\""
par Aloha.host[282] arrrate 3
par Aloha.host[282] packet_size 1B
attr unit B
par Aloha.host[282] x 179.605m
attr unit m
par Aloha.host[282] y 84.5105m
attr unit m
par Aloha.host[282] txrate 1000Bps
attr unit Bps
par Aloha.host[283] typename "\"Host\""
par Aloha.host[283] arrrate 3
par Aloha.host[283] packet_size 1B
attr unit B
par Aloha.host[283] x 188.141m
attr unit m
par Aloha.host[283] y 83.7654m
attr unit m
par Aloha.host[283] txrate 1000Bps
attr unit Bps
par Aloha.host[284] typename "\"Host\""
par Aloha.host[284] arrrate 3
par Aloha.host[284] packet_size 1B
attr unit B
par Aloha.host[284] x 76.8244m
attr unit m
par Aloha.host[284] y 173.71m
attr unit m
par Aloha.host[284] txrate 1000Bps
attr unit Bps
par Aloha.host[285] typename "\"Host\""
par Aloha.host[285] arrrate 3
par Aloha.host[285] packet_size 1B
attr unit B
par Aloha.host[285] x 79.2236m
attr unit m
par Aloha.host[285] y 21.6661m
attr unit m
par Aloha.host[285] txrate 1000Bps
attr unit Bps
par Aloha.host[286] typename "\"Host\""
par Aloha.host[286] arrrate 3
par Aloha.host[286] packet_size 1B
attr unit B
par Aloha.host[286] x 179.456m
attr unit m
par Aloha.host[286] y 114.724m
attr unit m
par Aloha.host[286] txrate 1000Bps
attr unit Bps
par Aloha.host[287] typename "\"Host\""
par Aloha.host[287] arrrate 3
par Aloha.host[287] packet_size 1B
attr unit B
par Aloha.host[287] x 11.7645m
attr unit m
par Aloha.host[287] y 120.442m
attr unit m
par Aloha.host[287] txrate 1000Bps
attr unit Bps
par Aloha.host[288] typename "\"Host\""
par Aloha.host[288] arrrate 3
par Aloha.host[288] packet_size 1B
attr unit B
par Aloha.host[288] x 81.0759m
attr unit m
par Aloha.host[288] y 14.2547m
attr unit m
par Aloha.host[288] txrate 1000Bps
attr unit Bps
par Aloha.host[289] typename "\"Host\""
par Aloha.host[289] arrrate 3
par Aloha.host[289] packet_size 1B
attr unit B
par Aloha.host[289] x 26.0351m
attr unit m
par Aloha.host[289] y 60.9306m
attr unit m
par Aloha.host[289] txrate 1000Bps
attr unit Bps
par Aloha.host[290] typename "\"Host\""
par Aloha.host[290] arrrate 3
par Aloha.host[290] packet_size 1B
attr unit B
par Aloha.host[290] x 17.3939m
attr unit m
par Aloha.host[290] y 94.273m
attr unit m
par Aloha.host[290] txrate 1000Bps
attr unit Bps
par Aloha.host[291] typename "\"Host\""
par Aloha.host[291] arrrate 3
par Aloha.host[291] packet_size 1B
attr unit B
par Aloha.host[291] x 156.793m
attr unit m
par Aloha.host[291] y 85.7551m
attr unit m
par Aloha.host[291] txrate 1000Bps
attr unit Bps
par Aloha.host[292] typename "\"Host\""
par Aloha.host[292] arrrate 3
par Aloha.host[292] packet_size 1B
attr unit B
par Aloha.host[292] x 60.9147m
attr unit m
par Aloha.host[292] y 152.792m
attr unit m
par Aloha.host[292] txrate 1000Bps
attr unit Bps
par Aloha.host[293] typename "\"Host\""
par Aloha.host[293] arrrate 3
par Aloha.host[293] packet_size 1B
attr unit B
par Aloha.host[293] x 116.811m
attr unit m
par Aloha.host[293] y 47.8852m
attr unit m
par Aloha.host[293] txrate 1000Bps
attr unit Bps
par Aloha.host[294] typename "\"Host\""
par Aloha.host[294] arrrate 3
par Aloha.host[294] packet_size 1B
attr unit B
par Aloha.host[294] x 175.693m
attr unit m
par Aloha.host[294] y 118.654m
attr unit m
par Aloha.host[294] txrate 1000Bps
attr unit Bps
par Aloha.host[295] typename "\"Host\""
par Aloha.host[295] arrrate 3
par Aloha.host[295] packet_size 1B
attr unit B
par Aloha.host[295] x 176.158m
attr unit m
par Aloha.host[295] y 43.1975m
attr unit m
par Aloha.host[295] txrate 1000Bps
attr unit Bps
par Aloha.host[296] typename "\"Host\""
par Aloha.host[296] arrrate 3
par Aloha.host[296] packet_size 1B
attr unit B
par Aloha.host[296] x 120.191m
attr unit m
par Aloha.host[296] y 65.7112m
attr unit m
par Aloha.host[296] txrate 1000Bps
attr unit Bps
par Aloha.host[297] typename "\"Host\""
par Aloha.host[297] arrrate 3
par Aloha.host[297] packet_size 1B
attr unit B
par Aloha.host[297] x 129.046m
attr unit m
par Aloha.host[297] y 13.6545m
attr unit m
par Aloha.host[297] txrate 1000Bps
attr unit Bps
par Aloha.host[298] typename "\"Host\""
par Aloha.host[298] arrrate 3
par Aloha.host[298] packet_size 1B
attr unit B
par Aloha.host[298] x 11.3256m
attr unit m
par Aloha.host[298] y 145.131m
attr unit m
par Aloha.host[298] txrate 1000Bps
attr unit Bps
par Aloha.host[299] typename "\"Host\""
par Aloha.host[299] arrrate 3
par Aloha.host[299] packet_size 1B
attr unit B
par Aloha.host[299] x 59.4968m
attr unit m
par Aloha.host[299] y 122.448m
attr unit m
par Aloha.host[299] txrate 1000Bps
attr unit Bps
par Aloha.host[300] typename "\"Host\""
par Aloha.host[300] arrrate 3
par Aloha.host[300] packet_size 1B
attr unit B
par Aloha.host[300] x 138.355m
attr unit m
par Aloha.host[300] y 23.401m
attr unit m
par Aloha.host[300] txrate 1000Bps
attr unit Bps
par Aloha.host[301] typename "\"Host\""
par Aloha.host[301] arrrate 3
par Aloha.host[301] packet_size 1B
attr unit B
par Aloha.host[301] x 37.8059m
attr unit m
par Aloha.host[301] y 137.473m
attr unit m
par Aloha.host[301] txrate 1000Bps
attr unit Bps
par Aloha.host[302] typename "\"Host\""
par Aloha.host[302] arrrate 3
par Aloha.host[302] packet_size 1B
attr unit B
par Aloha.host[302] x 160.602m
attr unit m
par Aloha.host[302] y 29.0037m
attr unit m
par Aloha.host[302] txrate 1000Bps
attr unit Bps
par Aloha.host[303] typename "\"Host\""
par Aloha.host[303] arrrate 3
par Aloha.host[303] packet_size 1B
attr unit B
par Aloha.host[303] x 102.953m
attr unit m
par Aloha.host[303] y 192.506m
attr unit m
par Aloha.host[303] txrate 1000Bps
attr unit Bps
par Aloha.host[304] typename "\"Host\""
par Aloha.host[304] arrrate 3
par Aloha.host[304] packet_size 1B
attr unit B
par Aloha.host[304] x 151.457m
attr unit m
par Aloha.host[304] y 155.456m
attr unit m
par Aloha.host[304] txrate 1000Bps
attr unit Bps
par Aloha.host[305] typename "\"Host\""
par Aloha.host[305] arrrate 3
par Aloha.host[305] packet_size 1B
attr unit B
par Aloha.host[305] x 35.5577m
attr unit m
par Aloha.host[305] y 180.67m
attr unit m
par Aloha.host[305] txrate 1000Bps
attr unit Bps
par Aloha.host[306] typename "\"Host\""
par Aloha.host[306] arrrate 3
par Aloha.host[306] packet_size 1B
attr unit B
par Aloha.host[306] x 16.5241m
attr unit m
par Aloha.host[306] y 156.876m
attr unit m
par Aloha.host[306] txrate 1000Bps
attr unit Bps
par Aloha.host[307] typename "\"Host\""
par Aloha.host[307] arrrate 3
par Aloha.host[307] packet_size 1B
attr unit B
par Aloha.host[307] x 96.4144m
attr unit m
par Aloha.host[307] y 101.737m
attr unit m
par Aloha.host[307] txrate 1000Bps
attr unit Bps
par Aloha.host[308] typename "\"Host\""
par Aloha.host[308] arrrate 3
par Aloha.host[308] packet_size 1B
attr unit B
par Aloha.host[308] x 105.771m
attr unit m
par Aloha.host[308] y 26.3941m
attr unit m
par Aloha.host[308] txrate 1000Bps
attr unit Bps
par Aloha.host[309] typename "\"Host\""
par Aloha.host[309] arrrate 3
par Aloha.host[309] packet_size 1B
attr unit B
par Aloha.host[309] x 139.262m
attr unit m
par Aloha.host[309] y 45.962m
attr unit m
par Aloha.host[309] txrate 1000Bps
attr unit Bps
par Aloha.host[310] typename "\"Host\""
par Aloha.host[310] arrrate 3
par Aloha.host[310] packet_size 1B
attr unit B
par Aloha.host[310] x 40.9523m
attr unit m
par Aloha.host[310] y 123.349m
attr unit m
par Aloha.host[310] txrate 1000Bps
attr unit Bps
par Aloha.host[311] typename "\"Host\""
par Aloha.host[311] arrrate 3
par Aloha.host[311] packet_size 1B
attr unit B
par Aloha.host[311] x 134.274m
attr unit m
par Aloha.host[311] y 153.789m
attr unit m
par Aloha.host[311] txrate 1000Bps
attr unit Bps
par Aloha.host[312] typename "\"Host\""
par Aloha.host[312] arrrate 3
par Aloha.host[312] packet_size 1B
attr unit B
par Aloha.host[312] x 158.654m
attr unit m
par Aloha.host[312] y 107.481m
attr unit m
par Aloha.host[312] txrate 1000Bps
attr unit Bps
par Aloha.host[313] typename "\"Host\""
par Aloha.host[313] arrrate 3
par Aloha.host[313] packet_size 1B
attr unit B
par Aloha.host[313] x 8.34756m
attr unit m
par Aloha.host[313] y 73.5433m
attr unit m
par Aloha.host[313] txrate 1000Bps
attr unit Bps
par Aloha.host[314] typename "\"Host\""
par Aloha.host[314] arrrate 3
par Aloha.host[314] packet_size 1B
attr unit B
par Aloha.host[314] x 192.672m
attr unit m
par Aloha.host[314] y 133.937m
attr unit m
par Aloha.host[314] txrate 1000Bps
attr unit Bps
par Aloha.host[315] typename "\"Host\""
par Aloha.host[315] arrrate 3
par Aloha.host[315] packet_size 1B
attr unit B
par Aloha.host[315] x 195.079m
attr unit m
par Aloha.host[315] y 81.3503m
attr unit m
par Aloha.host[315] txrate 1000Bps
attr unit Bps
par Aloha.host[316] typename "\"Host\""
par Aloha.host[316] arrrate 3
par Aloha.host[316] packet_size 1B
attr unit B
par Aloha.host[316] x 110.132m
attr unit m
par Aloha.host[316] y 71.3901m
attr unit m
par Aloha.host[316] txrate 1000Bps
attr unit Bps
par Aloha.host[317] typename "\"Host\""
par Aloha.host[317] arrrate 3
par Aloha.host[317] packet_size 1B
attr unit B
par Aloha.host[317] x 12.9814m
attr unit m
[...]
par Aloha.host[921] y 142.437m
attr unit m
par Aloha.host[921] txrate 1000Bps
attr unit Bps
par Aloha.host[922] typename "\"Host\""
par Aloha.host[922] arrrate 3
par Aloha.host[922] packet_size 1B
attr unit B
par Aloha.host[922] x 145.89m
attr unit m
par Aloha.host[922] y 127.85m
attr unit m
par Aloha.host[922] txrate 1000Bps
attr unit Bps
par Aloha.host[923] typename "\"Host\""
par Aloha.host[923] arrrate 3
par Aloha.host[923] packet_size 1B
attr unit B
par Aloha.host[923] x 183.411m
attr unit m
par Aloha.host[923] y 45.8841m
attr unit m
par Aloha.host[923] txrate 1000Bps
attr unit Bps
par Aloha.host[924] typename "\"Host\""
par Aloha.host[924] arrrate 3
par Aloha.host[924] packet_size 1B
attr unit B
par Aloha.host[924] x 168.692m
attr unit m
par Aloha.host[924] y 191.86m
attr unit m
par Aloha.host[924] txrate 1000Bps
attr unit Bps
par Aloha.host[925] typename "\"Host\""
par Aloha.host[925] arrrate 3
par Aloha.host[925] packet_size 1B
attr unit B
par Aloha.host[925] x 2.61372m
attr unit m
par Aloha.host[925] y 119.011m
attr unit m
par Aloha.host[925] txrate 1000Bps
attr unit Bps
par Aloha.host[926] typename "\"Host\""
par Aloha.host[926] arrrate 3
par Aloha.host[926] packet_size 1B
attr unit B
par Aloha.host[926] x 86.1762m
attr unit m
par Aloha.host[926] y 93.2279m
attr unit m
par Aloha.host[926] txrate 1000Bps
attr unit Bps
par Aloha.host[927] typename "\"Host\""
par Aloha.host[927] arrrate 3
par Aloha.host[927] packet_size 1B
attr unit B
par Aloha.host[927] x 79.0807m
attr unit m
par Aloha.host[927] y 185.276m
attr unit m
par Aloha.host[927] txrate 1000Bps
attr unit Bps
par Aloha.host[928] typename "\"Host\""
par Aloha.host[928] arrrate 3
par Aloha.host[928] packet_size 1B
attr unit B
par Aloha.host[928] x 84.2825m
attr unit m
par Aloha.host[928] y 41.8153m
attr unit m
par Aloha.host[928] txrate 1000Bps
attr unit Bps
par Aloha.host[929] typename "\"Host\""
par Aloha.host[929] arrrate 3
par Aloha.host[929] packet_size 1B
attr unit B
par Aloha.host[929] x 28.0471m
attr unit m
par Aloha.host[929] y 136.708m
attr unit m
par Aloha.host[929] txrate 1000Bps
attr unit Bps
par Aloha.host[930] typename "\"Host\""
par Aloha.host[930] arrrate 3
par Aloha.host[930] packet_size 1B
attr unit B
par Aloha.host[930] x 152.248m
attr unit m
par Aloha.host[930] y 199.857m
attr unit m
par Aloha.host[930] txrate 1000Bps
attr unit Bps
par Aloha.host[931] typename "\"Host\""
par Aloha.host[931] arrrate 3
par Aloha.host[931] packet_size 1B
attr unit B
par Aloha.host[931] x 138.492m
attr unit m
par Aloha.host[931] y 110.501m
attr unit m
par Aloha.host[931] txrate 1000Bps
attr unit Bps
par Aloha.host[932] typename "\"Host\""
par Aloha.host[932] arrrate 3
par Aloha.host[932] packet_size 1B
attr unit B
par Aloha.host[932] x 122.365m
attr unit m
par Aloha.host[932] y 142.248m
attr unit m
par Aloha.host[932] txrate 1000Bps
attr unit Bps
par Aloha.host[933] typename "\"Host\""
par Aloha.host[933] arrrate 3
par Aloha.host[933] packet_size 1B
attr unit B
par Aloha.host[933] x 185.782m
attr unit m
par Aloha.host[933] y 30.9411m
attr unit m
par Aloha.host[933] txrate 1000Bps
attr unit Bps
par Aloha.host[934] typename "\"Host\""
par Aloha.host[934] arrrate 3
par Aloha.host[934] packet_size 1B
attr unit B
par Aloha.host[934] x 143.084m
attr unit m
par Aloha.host[934] y 175.394m
attr unit m
par Aloha.host[934] txrate 1000Bps
attr unit Bps
par Aloha.host[935] typename "\"Host\""
par Aloha.host[935] arrrate 3
par Aloha.host[935] packet_size 1B
attr unit B
par Aloha.host[935] x 64.6147m
attr unit m
par Aloha.host[935] y 192.08m
attr unit m
par Aloha.host[935] txrate 1000Bps
attr unit Bps
par Aloha.host[936] typename "\"Host\""
par Aloha.host[936] arrrate 3
par Aloha.host[936] packet_size 1B
attr unit B
par Aloha.host[936] x 163.209m
attr unit m
par Aloha.host[936] y 55.833m
attr unit m
par Aloha.host[936] txrate 1000Bps
attr unit Bps
par Aloha.host[937] typename "\"Host\""
par Aloha.host[937] arrrate 3
par Aloha.host[937] packet_size 1B
attr unit B
par Aloha.host[937] x 189.406m
attr unit m
par Aloha.host[937] y 131.952m
attr unit m
par Aloha.host[937] txrate 1000Bps
attr unit Bps
par Aloha.host[938] typename "\"Host\""
par Aloha.host[938] arrrate 3
par Aloha.host[938] packet_size 1B
attr unit B
par Aloha.host[938] x 32.2689m
attr unit m
par Aloha.host[938] y 81.5605m
attr unit m
par Aloha.host[938] txrate 1000Bps
attr unit Bps
par Aloha.host[939] typename "\"Host\""
par Aloha.host[939] arrrate 3
par Aloha.host[939] packet_size 1B
attr unit B
par Aloha.host[939] x 105.796m
attr unit m
par Aloha.host[939] y 91.0904m
attr unit m
par Aloha.host[939] txrate 1000Bps
attr unit Bps
par Aloha.host[940] typename "\"Host\""
par Aloha.host[940] arrrate 3
par Aloha.host[940] packet_size 1B
attr unit B
par Aloha.host[940] x 155.868m
attr unit m
par Aloha.host[940] y 95.9454m
attr unit m
par Aloha.host[940] txrate 1000Bps
attr unit Bps
par Aloha.host[941] typename "\"Host\""
par Aloha.host[941] arrrate 3
par Aloha.host[941] packet_size 1B
attr unit B
par Aloha.host[941] x 71.5653m
attr unit m
par Aloha.host[941] y 194.238m
attr unit m
par Aloha.host[941] txrate 1000Bps
attr unit Bps
par Aloha.host[942] typename "\"Host\""
par Aloha.host[942] arrrate 3
par Aloha.host[942] packet_size 1B
attr unit B
par Aloha.host[942] x 73.7388m
attr unit m
par Aloha.host[942] y 121.845m
attr unit m
par Aloha.host[942] txrate 1000Bps
attr unit Bps
par Aloha.host[943] typename "\"Host\""
par Aloha.host[943] arrrate 3
par Aloha.host[943] packet_size 1B
attr unit B
par Aloha.host[943] x 140.235m
attr unit m
par Aloha.host[943] y 183.603m
attr unit m
par Aloha.host[943] txrate 1000Bps
attr unit Bps
par Aloha.host[944] typename "\"Host\""
par Aloha.host[944] arrrate 3
par Aloha.host[944] packet_size 1B
attr unit B
par Aloha.host[944] x 110.617m
attr unit m
par Aloha.host[944] y 59.9635m
attr unit m
par Aloha.host[944] txrate 1000Bps
attr unit Bps
par Aloha.host[945] typename "\"Host\""
par Aloha.host[945] arrrate 3
par Aloha.host[945] packet_size 1B
attr unit B
par Aloha.host[945] x 124.549m
attr unit m
par Aloha.host[945] y 151.592m
attr unit m
par Aloha.host[945] txrate 1000Bps
attr unit Bps
par Aloha.host[946] typename "\"Host\""
par Aloha.host[946] arrrate 3
par Aloha.host[946] packet_size 1B
attr unit B
par Aloha.host[946] x 41.0553m
attr unit m
par Aloha.host[946] y 22.5932m
attr unit m
par Aloha.host[946] txrate 1000Bps
attr unit Bps
par Aloha.host[947] typename "\"Host\""
par Aloha.host[947] arrrate 3
par Aloha.host[947] packet_size 1B
attr unit B
par Aloha.host[947] x 128.637m
attr unit m
par Aloha.host[947] y 120.79m
attr unit m
par Aloha.host[947] txrate 1000Bps
attr unit Bps
par Aloha.host[948] typename "\"Host\""
par Aloha.host[948] arrrate 3
par Aloha.host[948] packet_size 1B
attr unit B
par Aloha.host[948] x 99.2237m
attr unit m
par Aloha.host[948] y 2.74501m
attr unit m
par Aloha.host[948] txrate 1000Bps
attr unit Bps
par Aloha.host[949] typename "\"Host\""
par Aloha.host[949] arrrate 3
par Aloha.host[949] packet_size 1B
attr unit B
par Aloha.host[949] x 131.388m
attr unit m
par Aloha.host[949] y 28.0743m
attr unit m
par Aloha.host[949] txrate 1000Bps
attr unit Bps
par Aloha.host[950] typename "\"Host\""
par Aloha.host[950] arrrate 3
par Aloha.host[950] packet_size 1B
attr unit B
par Aloha.host[950] x 58.6018m
attr unit m
par Aloha.host[950] y 114.587m
attr unit m
par Aloha.host[950] txrate 1000Bps
attr unit Bps
par Aloha.host[951] typename "\"Host\""
par Aloha.host[951] arrrate 3
par Aloha.host[951] packet_size 1B
attr unit B
par Aloha.host[951] x 28.2527m
attr unit m
par Aloha.host[951] y 60.7784m
attr unit m
par Aloha.host[951] txrate 1000Bps
attr unit Bps
par Aloha.host[952] typename "\"Host\""
par Aloha.host[952] arrrate 3
par Aloha.host[952] packet_size 1B
attr unit B
par Aloha.host[952] x 167.349m
attr unit m
par Aloha.host[952] y 12.9605m
attr unit m
par Aloha.host[952] txrate 1000Bps
attr unit Bps
par Aloha.host[953] typename "\"Host\""
par Aloha.host[953] arrrate 3
par Aloha.host[953] packet_size 1B
attr unit B
par Aloha.host[953] x 22.6336m
attr unit m
par Aloha.host[953] y 20.1016m
attr unit m
par Aloha.host[953] txrate 1000Bps
attr unit Bps
par Aloha.host[954] typename "\"Host\""
par Aloha.host[954] arrrate 3
par Aloha.host[954] packet_size 1B
attr unit B
par Aloha.host[954] x 22.3967m
attr unit m
par Aloha.host[954] y 178.114m
attr unit m
par Aloha.host[954] txrate 1000Bps
attr unit Bps
par Aloha.host[955] typename "\"Host\""
par Aloha.host[955] arrrate 3
par Aloha.host[955] packet_size 1B
attr unit B
par Aloha.host[955] x 91.7825m
attr unit m
par Aloha.host[955] y 60.2485m
attr unit m
par Aloha.host[955] txrate 1000Bps
attr unit Bps
par Aloha.host[956] typename "\"Host\""
par Aloha.host[956] arrrate 3
par Aloha.host[956] packet_size 1B
attr unit B
par Aloha.host[956] x 82.9929m
attr unit m
par Aloha.host[956] y 192.809m
attr unit m
par Aloha.host[956] txrate 1000Bps
attr unit Bps
par Aloha.host[957] typename "\"Host\""
par Aloha.host[957] arrrate 3
par Aloha.host[957] packet_size 1B
attr unit B
par Aloha.host[957] x 189.085m
attr unit m
par Aloha.host[957] y 167.618m
attr unit m
par Aloha.host[957] txrate 1000Bps
attr unit Bps
par Aloha.host[958] typename "\"Host\""
par Aloha.host[958] arrrate 3
par Aloha.host[958] packet_size 1B
attr unit B
par Aloha.host[958] x 82.4273m
attr unit m
par Aloha.host[958] y 122.008m
attr unit m
par Aloha.host[958] txrate 1000Bps
attr unit Bps
par Aloha.host[959] typename "\"Host\""
par Aloha.host[959] arrrate 3
par Aloha.host[959] packet_size 1B
attr unit B
par Aloha.host[959] x 65.1619m
attr unit m
par Aloha.host[959] y 172.001m
attr unit m
par Aloha.host[959] txrate 1000Bps
attr unit Bps
par Aloha.host[960] typename "\"Host\""
par Aloha.host[960] arrrate 3
par Aloha.host[960] packet_size 1B
attr unit B
par Aloha.host[960] x 64.293m
attr unit m
par Aloha.host[960] y 18.8526m
attr unit m
par Aloha.host[960] txrate 1000Bps
attr unit Bps
par Aloha.host[961] typename "\"Host\""
par Aloha.host[961] arrrate 3
par Aloha.host[961] packet_size 1B
attr unit B
par Aloha.host[961] x 49.8431m
attr unit m
par Aloha.host[961] y 160.272m
attr unit m
par Aloha.host[961] txrate 1000Bps
attr unit Bps
par Aloha.host[962] typename "\"Host\""
par Aloha.host[962] arrrate 3
par Aloha.host[962] packet_size 1B
attr unit B
par Aloha.host[962] x 147.785m
attr unit m
par Aloha.host[962] y 117.509m
attr unit m
par Aloha.host[962] txrate 1000Bps
attr unit Bps
par Aloha.host[963] typename "\"Host\""
par Aloha.host[963] arrrate 3
par Aloha.host[963] packet_size 1B
attr unit B
par Aloha.host[963] x 5.80901m
attr unit m
par Aloha.host[963] y 49.4051m
attr unit m
par Aloha.host[963] txrate 1000Bps
attr unit Bps
par Aloha.host[964] typename "\"Host\""
par Aloha.host[964] arrrate 3
par Aloha.host[964] packet_size 1B
attr unit B
par Aloha.host[964] x 129.669m
attr unit m
par Aloha.host[964] y 146.665m
attr unit m
par Aloha.host[964] txrate 1000Bps
attr unit Bps
par Aloha.host[965] typename "\"Host\""
par Aloha.host[965] arrrate 3
par Aloha.host[965] packet_size 1B
attr unit B
par Aloha.host[965] x 13.0058m
attr unit m
par Aloha.host[965] y 192.55m
attr unit m
par Aloha.host[965] txrate 1000Bps
attr unit Bps
par Aloha.host[966] typename "\"Host\""
par Aloha.host[966] arrrate 3
par Aloha.host[966] packet_size 1B
attr unit B
par Aloha.host[966] x 48.0386m
attr unit m
par Aloha.host[966] y 134.486m
attr unit m
par Aloha.host[966] txrate 1000Bps
attr unit Bps
par Aloha.host[967] typename "\"Host\""
par Aloha.host[967] arrrate 3
par Aloha.host[967] packet_size 1B
attr unit B
par Aloha.host[967] x 18.0893m
attr unit m
par Aloha.host[967] y 125.687m
attr unit m
par Aloha.host[967] txrate 1000Bps
attr unit Bps
par Aloha.host[968] typename "\"Host\""
par Aloha.host[968] arrrate 3
par Aloha.host[968] packet_size 1B
attr unit B
par Aloha.host[968] x 152.193m
attr unit m
par Aloha.host[968] y 8.27068m
attr unit m
par Aloha.host[968] txrate 1000Bps
attr unit Bps
par Aloha.host[969] typename "\"Host\""
par Aloha.host[969] arrrate 3
par Aloha.host[969] packet_size 1B
attr unit B
par Aloha.host[969] x 43.0654m
attr unit m
par Aloha.host[969] y 70.0029m
attr unit m
par Aloha.host[969] txrate 1000Bps
attr unit Bps
par Aloha.host[970] typename "\"Host\""
par Aloha.host[970] arrrate 3
par Aloha.host[970] packet_size 1B
attr unit B
par Aloha.host[970] x 136.102m
attr unit m
par Aloha.host[970] y 56.7889m
attr unit m
par Aloha.host[970] txrate 1000Bps
attr unit Bps
par Aloha.host[971] typename "\"Host\""
par Aloha.host[971] arrrate 3
par Aloha.host[971] packet_size 1B
attr unit B
par Aloha.host[971] x 94.9735m
attr unit m
par Aloha.host[971] y 92.9258m
attr unit m
par Aloha.host[971] txrate 1000Bps
attr unit Bps
par Aloha.host[972] typename "\"Host\""
par Aloha.host[972] arrrate 3
par Aloha.host[972] packet_size 1B
attr unit B
par Aloha.host[972] x 186.163m
attr unit m
par Aloha.host[972] y 60.6562m
attr unit m
par Aloha.host[972] txrate 1000Bps
attr unit Bps
par Aloha.host[973] typename "\"Host\""
par Aloha.host[973] arrrate 3
par Aloha.host[973] packet_size 1B
attr unit B
par Aloha.host[973] x 31.5938m
attr unit m
par Aloha.host[973] y 162.815m
attr unit m
par Aloha.host[973] txrate 1000Bps
attr unit Bps
par Aloha.host[974] typename "\"Host\""
par Aloha.host[974] arrrate 3
par Aloha.host[974] packet_size 1B
attr unit B
par Aloha.host[974] x 96.2467m
attr unit m
par Aloha.host[974] y 153.23m
attr unit m
par Aloha.host[974] txrate 1000Bps
attr unit Bps
par Aloha.host[975] typename "\"Host\""
par Aloha.host[975] arrrate 3
par Aloha.host[975] packet_size 1B
attr unit B
par Aloha.host[975] x 18.2186m
attr unit m
par Aloha.host[975] y 120.067m
attr unit m
par Aloha.host[975] txrate 1000Bps
attr unit Bps
par Aloha.host[976] typename "\"Host\""
par Aloha.host[976] arrrate 3
par Aloha.host[976] packet_size 1B
attr unit B
par Aloha.host[976] x 35.2915m
attr unit m
par Aloha.host[976] y 180.201m
attr unit m
par Aloha.host[976] txrate 1000Bps
attr unit Bps
par Aloha.host[977] typename "\"Host\""
par Aloha.host[977] arrrate 3
par Aloha.host[977] packet_size 1B
attr unit B
par Aloha.host[977] x 14.7256m
attr unit m
par Aloha.host[977] y 88.5763m
attr unit m
par Aloha.host[977] txrate 1000Bps
attr unit Bps
par Aloha.host[978] typename "\"Host\""
par Aloha.host[978] arrrate 3
par Aloha.host[978] packet_size 1B
attr unit B
par Aloha.host[978] x 68.7987m
attr unit m
par Aloha.host[978] y 72.4573m
attr unit m
par Aloha.host[978] txrate 1000Bps
attr unit Bps
par Aloha.host[979] typename "\"Host\""
par Aloha.host[979] arrrate 3
par Aloha.host[979] packet_size 1B
attr unit B
par Aloha.host[979] x 135.399m
attr unit m
par Aloha.host[979] y 96.1886m
attr unit m
par Aloha.host[979] txrate 1000Bps
attr unit Bps
par Aloha.host[980] typename "\"Host\""
par Aloha.host[980] arrrate 3
par Aloha.host[980] packet_size 1B
attr unit B
par Aloha.host[980] x 55.5278m
attr unit m
par Aloha.host[980] y 194.669m
attr unit m
par Aloha.host[980] txrate 1000Bps
attr unit Bps
par Aloha.host[981] typename "\"Host\""
par Aloha.host[981] arrrate 3
par Aloha.host[981] packet_size 1B
attr unit B
par Aloha.host[981] x 62.0934m
attr unit m
par Aloha.host[981] y 8.9909m
attr unit m
par Aloha.host[981] txrate 1000Bps
attr unit Bps
par Aloha.host[982] typename "\"Host\""
par Aloha.host[982] arrrate 3
par Aloha.host[982] packet_size 1B
attr unit B
par Aloha.host[982] x 10.8922m
attr unit m
par Aloha.host[982] y 150.773m
attr unit m
par Aloha.host[982] txrate 1000Bps
attr unit Bps
par Aloha.host[983] typename "\"Host\""
par Aloha.host[983] arrrate 3
par Aloha.host[983] packet_size 1B
attr unit B
par Aloha.host[983] x 60.5165m
attr unit m
par Aloha.host[983] y 77.1866m
attr unit m
par Aloha.host[983] txrate 1000Bps
attr unit Bps
par Aloha.host[984] typename "\"Host\""
par Aloha.host[984] arrrate 3
par Aloha.host[984] packet_size 1B
attr unit B
par Aloha.host[984] x 171.048m
attr unit m
par Aloha.host[984] y 116.117m
attr unit m
par Aloha.host[984] txrate 1000Bps
attr unit Bps
par Aloha.host[985] typename "\"Host\""
par Aloha.host[985] arrrate 3
par Aloha.host[985] packet_size 1B
attr unit B
par Aloha.host[985] x 113.569m
attr unit m
par Aloha.host[985] y 8.32034m
attr unit m
par Aloha.host[985] txrate 1000Bps
attr unit Bps
par Aloha.host[986] typename "\"Host\""
par Aloha.host[986] arrrate 3
par Aloha.host[986] packet_size 1B
attr unit B
par Aloha.host[986] x 194.015m
attr unit m
par Aloha.host[986] y 191.418m
attr unit m
par Aloha.host[986] txrate 1000Bps
attr unit Bps
par Aloha.host[987] typename "\"Host\""
par Aloha.host[987] arrrate 3
par Aloha.host[987] packet_size 1B
attr unit B
par Aloha.host[987] x 138.386m
attr unit m
par Aloha.host[987] y 91.6899m
attr unit m
par Aloha.host[987] txrate 1000Bps
attr unit Bps
par Aloha.host[988] typename "\"Host\""
par Aloha.host[988] arrrate 3
par Aloha.host[988] packet_size 1B
attr unit B
par Aloha.host[988] x 26.5395m
attr unit m
par Aloha.host[988] y 146.512m
attr unit m
par Aloha.host[988] txrate 1000Bps
attr unit Bps
par Aloha.host[989] typename "\"Host\""
par Aloha.host[989] arrrate 3
par Aloha.host[989] packet_size 1B
attr unit B
par Aloha.host[989] x 32.0734m
attr unit m
par Aloha.host[989] y 144.861m
attr unit m
par Aloha.host[989] txrate 1000Bps
attr unit Bps
par Aloha.host[990] typename "\"Host\""
par Aloha.host[990] arrrate 3
par Aloha.host[990] packet_size 1B
attr unit B
par Aloha.host[990] x 78.1911m
attr unit m
par Aloha.host[990] y 72.277m
attr unit m
par Aloha.host[990] txrate 1000Bps
attr unit Bps
par Aloha.host[991] typename "\"Host\""
par Aloha.host[991] arrrate 3
par Aloha.host[991] packet_size 1B
attr unit B
par Aloha.host[991] x 34.5688m
attr unit m
par Aloha.host[991] y 115.23m
attr unit m
par Aloha.host[991] txrate 1000Bps
attr unit Bps
par Aloha.host[992] typename "\"Host\""
par Aloha.host[992] arrrate 3
par Aloha.host[992] packet_size 1B
attr unit B
par Aloha.host[992] x 5.40062m
attr unit m
par Aloha.host[992] y 18.2338m
attr unit m
par Aloha.host[992] txrate 1000Bps
attr unit Bps
par Aloha.host[993] typename "\"Host\""
par Aloha.host[993] arrrate 3
par Aloha.host[993] packet_size 1B
attr unit B
par Aloha.host[993] x 45.8183m
attr unit m
par Aloha.host[993] y 158.782m
attr unit m
par Aloha.host[993] txrate 1000Bps
attr unit Bps
par Aloha.host[994] typename "\"Host\""
par Aloha.host[994] arrrate 3
par Aloha.host[994] packet_size 1B
attr unit B
par Aloha.host[994] x 80.3917m
attr unit m
par Aloha.host[994] y 85.4135m
attr unit m
par Aloha.host[994] txrate 1000Bps
attr unit Bps
par Aloha.host[995] typename "\"Host\""
par Aloha.host[995] arrrate 3
par Aloha.host[995] packet_size 1B
attr unit B
par Aloha.host[995] x 103.118m
attr unit m
par Aloha.host[995] y 120.294m
attr unit m
par Aloha.host[995] txrate 1000Bps
attr unit Bps
par Aloha.host[996] typename "\"Host\""
par Aloha.host[996] arrrate 3
par Aloha.host[996] packet_size 1B
attr unit B
par Aloha.host[996] x 42.0307m
attr unit m
par Aloha.host[996] y 11.321m
attr unit m
par Aloha.host[996] txrate 1000Bps
attr unit Bps
par Aloha.host[997] typename "\"Host\""
par Aloha.host[997] arrrate 3
par Aloha.host[997] packet_size 1B
attr unit B
par Aloha.host[997] x 33.0225m
attr unit m
par Aloha.host[997] y 16.9088m
attr unit m
par Aloha.host[997] txrate 1000Bps
attr unit Bps
par Aloha.host[998] typename "\"Host\""
par Aloha.host[998] arrrate 3
par Aloha.host[998] packet_size 1B
attr unit B
par Aloha.host[998] x 137.99m
attr unit m
par Aloha.host[998] y 3.63091m
attr unit m
par Aloha.host[998] txrate 1000Bps
attr unit Bps
par Aloha.host[999] typename "\"Host\""
par Aloha.host[999] arrrate 3
par Aloha.host[999] packet_size 1B
attr unit B
par Aloha.host[999] x 19.0379m
attr unit m
par Aloha.host[999] y 130.218m
attr unit m
par Aloha.host[999] txrate 1000Bps
attr unit Bps
par Aloha.server typename "\"Server\""
par Aloha.server x 69.666m
attr unit m
par Aloha.server y 87.3868m
attr unit m
scalar Aloha.server prob_succ 0.0024811219687141
scalar Aloha.server uti 0.74436
par Aloha typename "\"Aloha\""
par Aloha numHosts 1000

