version 3
run General-8-20220605-16:55:53-732257
attr configname General
attr datetime 20220605-16:55:53
attr datetimef 20220605-165553
attr experiment General
attr inifile aloha.ini
attr iterationvars $0=0.9
attr iterationvarsd 0.9
attr iterationvarsf 0.9-
attr measurement $0=0.9
attr network Aloha
attr processid 732257
attr repetition 0
attr replication #0
attr resultdir results
attr runnumber 8
attr seedset 8
config network Aloha
config cmdenv-performance-display false
config sim-time-limit 100000s
config **.x "uniform(0m, 200m)"
config **.y "uniform(0m, 200m)"
config *.numHosts 1000
config **.packet_size 1B
config **.txrate 1000Bps
config **.arrrate 0.9

par Aloha.host[0] typename "\"Host\""
par Aloha.host[0] arrrate 0.9
par Aloha.host[0] packet_size 1B
attr unit B
par Aloha.host[0] x 174.686m
attr unit m
par Aloha.host[0] y 2.22289m
attr unit m
par Aloha.host[0] txrate 1000Bps
attr unit Bps
par Aloha.host[1] typename "\"Host\""
par Aloha.host[1] arrrate 0.9
par Aloha.host[1] packet_size 1B
attr unit B
par Aloha.host[1] x 193.708m
attr unit m
par Aloha.host[1] y 47.8879m
attr unit m
par Aloha.host[1] txrate 1000Bps
attr unit Bps
par Aloha.host[2] typename "\"Host\""
par Aloha.host[2] arrrate 0.9
par Aloha.host[2] packet_size 1B
attr unit B
par Aloha.host[2] x 173.839m
attr unit m
par Aloha.host[2] y 75.5034m
attr unit m
par Aloha.host[2] txrate 1000Bps
attr unit Bps
par Aloha.host[3] typename "\"Host\""
par Aloha.host[3] arrrate 0.9
par Aloha.host[3] packet_size 1B
attr unit B
par Aloha.host[3] x 106.171m
attr unit m
par Aloha.host[3] y 163.292m
attr unit m
par Aloha.host[3] txrate 1000Bps
attr unit Bps
par Aloha.host[4] typename "\"Host\""
par Aloha.host[4] arrrate 0.9
par Aloha.host[4] packet_size 1B
attr unit B
par Aloha.host[4] x 46.5457m
attr unit m
par Aloha.host[4] y 84.4702m
attr unit m
par Aloha.host[4] txrate 1000Bps
attr unit Bps
par Aloha.host[5] typename "\"Host\""
par Aloha.host[5] arrrate 0.9
par Aloha.host[5] packet_size 1B
attr unit B
par Aloha.host[5] x 2.27976m
attr unit m
par Aloha.host[5] y 122.407m
attr unit m
par Aloha.host[5] txrate 1000Bps
attr unit Bps
par Aloha.host[6] typename "\"Host\""
par Aloha.host[6] arrrate 0.9
par Aloha.host[6] packet_size 1B
attr unit B
par Aloha.host[6] x 86.0938m
attr unit m
par Aloha.host[6] y 153.213m
attr unit m
par Aloha.host[6] txrate 1000Bps
attr unit Bps
par Aloha.host[7] typename "\"Host\""
par Aloha.host[7] arrrate 0.9
par Aloha.host[7] packet_size 1B
attr unit B
par Aloha.host[7] x 80.4703m
attr unit m
par Aloha.host[7] y 80.385m
attr unit m
par Aloha.host[7] txrate 1000Bps
attr unit Bps
par Aloha.host[8] typename "\"Host\""
par Aloha.host[8] arrrate 0.9
par Aloha.host[8] packet_size 1B
attr unit B
par Aloha.host[8] x 104.535m
attr unit m
par Aloha.host[8] y 174.418m
attr unit m
par Aloha.host[8] txrate 1000Bps
attr unit Bps
par Aloha.host[9] typename "\"Host\""
par Aloha.host[9] arrrate 0.9
par Aloha.host[9] packet_size 1B
attr unit B
par Aloha.host[9] x 95.6784m
attr unit m
par Aloha.host[9] y 185.288m
attr unit m
par Aloha.host[9] txrate 1000Bps
attr unit Bps
par Aloha.host[10] typename "\"Host\""
par Aloha.host[10] arrrate 0.9
par Aloha.host[10] packet_size 1B
attr unit B
par Aloha.host[10] x 111.071m
attr unit m
par Aloha.host[10] y 29.3049m
attr unit m
par Aloha.host[10] txrate 1000Bps
attr unit Bps
par Aloha.host[11] typename "\"Host\""
par Aloha.host[11] arrrate 0.9
par Aloha.host[11] packet_size 1B
attr unit B
par Aloha.host[11] x 108.677m
attr unit m
par Aloha.host[11] y 140.306m
attr unit m
par Aloha.host[11] txrate 1000Bps
attr unit Bps
par Aloha.host[12] typename "\"Host\""
par Aloha.host[12] arrrate 0.9
par Aloha.host[12] packet_size 1B
attr unit B
par Aloha.host[12] x 152.179m
attr unit m
par Aloha.host[12] y 80.5355m
attr unit m
par Aloha.host[12] txrate 1000Bps
attr unit Bps
par Aloha.host[13] typename "\"Host\""
par Aloha.host[13] arrrate 0.9
par Aloha.host[13] packet_size 1B
attr unit B
par Aloha.host[13] x 142.475m
attr unit m
par Aloha.host[13] y 163.653m
attr unit m
par Aloha.host[13] txrate 1000Bps
attr unit Bps
par Aloha.host[14] typename "\"Host\""
par Aloha.host[14] arrrate 0.9
par Aloha.host[14] packet_size 1B
attr unit B
par Aloha.host[14] x 123.936m
attr unit m
par Aloha.host[14] y 4.25626m
attr unit m
par Aloha.host[14] txrate 1000Bps
attr unit Bps
par Aloha.host[15] typename "\"Host\""
par Aloha.host[15] arrrate 0.9
par Aloha.host[15] packet_size 1B
attr unit B
par Aloha.host[15] x 85.2184m
attr unit m
par Aloha.host[15] y 70.5624m
attr unit m
par Aloha.host[15] txrate 1000Bps
attr unit Bps
par Aloha.host[16] typename "\"Host\""
par Aloha.host[16] arrrate 0.9
par Aloha.host[16] packet_size 1B
attr unit B
par Aloha.host[16] x 57.815m
attr unit m
par Aloha.host[16] y 96.4248m
attr unit m
par Aloha.host[16] txrate 1000Bps
attr unit Bps
par Aloha.host[17] typename "\"Host\""
par Aloha.host[17] arrrate 0.9
par Aloha.host[17] packet_size 1B
attr unit B
par Aloha.host[17] x 194.771m
attr unit m
par Aloha.host[17] y 174.963m
attr unit m
par Aloha.host[17] txrate 1000Bps
attr unit Bps
par Aloha.host[18] typename "\"Host\""
par Aloha.host[18] arrrate 0.9
par Aloha.host[18] packet_size 1B
attr unit B
par Aloha.host[18] x 66.7548m
attr unit m
par Aloha.host[18] y 10.7622m
attr unit m
par Aloha.host[18] txrate 1000Bps
attr unit Bps
par Aloha.host[19] typename "\"Host\""
par Aloha.host[19] arrrate 0.9
par Aloha.host[19] packet_size 1B
attr unit B
par Aloha.host[19] x 43.7602m
attr unit m
par Aloha.host[19] y 53.4454m
attr unit m
par Aloha.host[19] txrate 1000Bps
attr unit Bps
par Aloha.host[20] typename "\"Host\""
par Aloha.host[20] arrrate 0.9
par Aloha.host[20] packet_size 1B
attr unit B
par Aloha.host[20] x 13.1617m
attr unit m
par Aloha.host[20] y 58.4285m
attr unit m
par Aloha.host[20] txrate 1000Bps
attr unit Bps
par Aloha.host[21] typename "\"Host\""
par Aloha.host[21] arrrate 0.9
par Aloha.host[21] packet_size 1B
attr unit B
par Aloha.host[21] x 196.574m
attr unit m
par Aloha.host[21] y 135.304m
attr unit m
par Aloha.host[21] txrate 1000Bps
attr unit Bps
par Aloha.host[22] typename "\"Host\""
par Aloha.host[22] arrrate 0.9
par Aloha.host[22] packet_size 1B
attr unit B
par Aloha.host[22] x 25.5711m
attr unit m
par Aloha.host[22] y 60.1236m
attr unit m
par Aloha.host[22] txrate 1000Bps
attr unit Bps
par Aloha.host[23] typename "\"Host\""
par Aloha.host[23] arrrate 0.9
par Aloha.host[23] packet_size 1B
attr unit B
par Aloha.host[23] x 64.4262m
attr unit m
par Aloha.host[23] y 36.5406m
attr unit m
par Aloha.host[23] txrate 1000Bps
attr unit Bps
par Aloha.host[24] typename "\"Host\""
par Aloha.host[24] arrrate 0.9
par Aloha.host[24] packet_size 1B
attr unit B
par Aloha.host[24] x 14.1886m
attr unit m
par Aloha.host[24] y 88.0457m
attr unit m
par Aloha.host[24] txrate 1000Bps
attr unit Bps
par Aloha.host[25] typename "\"Host\""
par Aloha.host[25] arrrate 0.9
par Aloha.host[25] packet_size 1B
attr unit B
par Aloha.host[25] x 44.954m
attr unit m
par Aloha.host[25] y 106.198m
attr unit m
par Aloha.host[25] txrate 1000Bps
attr unit Bps
par Aloha.host[26] typename "\"Host\""
par Aloha.host[26] arrrate 0.9
par Aloha.host[26] packet_size 1B
attr unit B
par Aloha.host[26] x 78.727m
attr unit m
par Aloha.host[26] y 189.041m
attr unit m
par Aloha.host[26] txrate 1000Bps
attr unit Bps
par Aloha.host[27] typename "\"Host\""
par Aloha.host[27] arrrate 0.9
par Aloha.host[27] packet_size 1B
attr unit B
par Aloha.host[27] x 179.229m
attr unit m
par Aloha.host[27] y 102.726m
attr unit m
par Aloha.host[27] txrate 1000Bps
attr unit Bps
par Aloha.host[28] typename "\"Host\""
par Aloha.host[28] arrrate 0.9
par Aloha.host[28] packet_size 1B
attr unit B
par Aloha.host[28] x 69.0923m
attr unit m
par Aloha.host[28] y 134.714m
attr unit m
par Aloha.host[28] txrate 1000Bps
attr unit Bps
par Aloha.host[29] typename "\"Host\""
par Aloha.host[29] arrrate 0.9
par Aloha.host[29] packet_size 1B
attr unit B
par Aloha.host[29] x 196.95m
attr unit m
par Aloha.host[29] y 24.3415m
attr unit m
par Aloha.host[29] txrate 1000Bps
attr unit Bps
par Aloha.host[30] typename "\"Host\""
par Aloha.host[30] arrrate 0.9
par Aloha.host[30] packet_size 1B
attr unit B
par Aloha.host[30] x 5.74641m
attr unit m
par Aloha.host[30] y 66.5277m
attr unit m
par Aloha.host[30] txrate 1000Bps
attr unit Bps
par Aloha.host[31] typename "\"Host\""
par Aloha.host[31] arrrate 0.9
par Aloha.host[31] packet_size 1B
attr unit B
par Aloha.host[31] x 70.3369m
attr unit m
par Aloha.host[31] y 54.8909m
attr unit m
par Aloha.host[31] txrate 1000Bps
attr unit Bps
par Aloha.host[32] typename "\"Host\""
par Aloha.host[32] arrrate 0.9
par Aloha.host[32] packet_size 1B
attr unit B
par Aloha.host[32] x 76.1918m
attr unit m
par Aloha.host[32] y 114.069m
attr unit m
par Aloha.host[32] txrate 1000Bps
attr unit Bps
par Aloha.host[33] typename "\"Host\""
par Aloha.host[33] arrrate 0.9
par Aloha.host[33] packet_size 1B
attr unit B
par Aloha.host[33] x 152.832m
attr unit m
par Aloha.host[33] y 132.024m
attr unit m
par Aloha.host[33] txrate 1000Bps
attr unit Bps
par Aloha.host[34] typename "\"Host\""
par Aloha.host[34] arrrate 0.9
par Aloha.host[34] packet_size 1B
attr unit B
par Aloha.host[34] x 187.761m
attr unit m
par Aloha.host[34] y 56.4161m
attr unit m
par Aloha.host[34] txrate 1000Bps
attr unit Bps
par Aloha.host[35] typename "\"Host\""
par Aloha.host[35] arrrate 0.9
par Aloha.host[35] packet_size 1B
attr unit B
par Aloha.host[35] x 63.938m
attr unit m
par Aloha.host[35] y 29.3174m
attr unit m
par Aloha.host[35] txrate 1000Bps
attr unit Bps
par Aloha.host[36] typename "\"Host\""
par Aloha.host[36] arrrate 0.9
par Aloha.host[36] packet_size 1B
attr unit B
par Aloha.host[36] x 86.4952m
attr unit m
par Aloha.host[36] y 22.7621m
attr unit m
par Aloha.host[36] txrate 1000Bps
attr unit Bps
par Aloha.host[37] typename "\"Host\""
par Aloha.host[37] arrrate 0.9
par Aloha.host[37] packet_size 1B
attr unit B
par Aloha.host[37] x 54.0291m
attr unit m
par Aloha.host[37] y 133.056m
attr unit m
par Aloha.host[37] txrate 1000Bps
attr unit Bps
par Aloha.host[38] typename "\"Host\""
par Aloha.host[38] arrrate 0.9
par Aloha.host[38] packet_size 1B
attr unit B
par Aloha.host[38] x 160.211m
attr unit m
par Aloha.host[38] y 12.751m
attr unit m
par Aloha.host[38] txrate 1000Bps
attr unit Bps
par Aloha.host[39] typename "\"Host\""
par Aloha.host[39] arrrate 0.9
par Aloha.host[39] packet_size 1B
attr unit B
par Aloha.host[39] x 127.648m
attr unit m
par Aloha.host[39] y 95.8556m
attr unit m
par Aloha.host[39] txrate 1000Bps
attr unit Bps
par Aloha.host[40] typename "\"Host\""
par Aloha.host[40] arrrate 0.9
par Aloha.host[40] packet_size 1B
attr unit B
par Aloha.host[40] x 13.738m
attr unit m
par Aloha.host[40] y 129.754m
attr unit m
par Aloha.host[40] txrate 1000Bps
attr unit Bps
par Aloha.host[41] typename "\"Host\""
par Aloha.host[41] arrrate 0.9
par Aloha.host[41] packet_size 1B
attr unit B
par Aloha.host[41] x 120.729m
attr unit m
par Aloha.host[41] y 27.6024m
attr unit m
par Aloha.host[41] txrate 1000Bps
attr unit Bps
par Aloha.host[42] typename "\"Host\""
par Aloha.host[42] arrrate 0.9
par Aloha.host[42] packet_size 1B
attr unit B
par Aloha.host[42] x 159.115m
attr unit m
par Aloha.host[42] y 137.388m
attr unit m
par Aloha.host[42] txrate 1000Bps
attr unit Bps
par Aloha.host[43] typename "\"Host\""
par Aloha.host[43] arrrate 0.9
par Aloha.host[43] packet_size 1B
attr unit B
par Aloha.host[43] x 6.40163m
attr unit m
par Aloha.host[43] y 6.58781m
attr unit m
par Aloha.host[43] txrate 1000Bps
attr unit Bps
par Aloha.host[44] typename "\"Host\""
par Aloha.host[44] arrrate 0.9
par Aloha.host[44] packet_size 1B
attr unit B
par Aloha.host[44] x 91.0896m
attr unit m
par Aloha.host[44] y 181.121m
attr unit m
par Aloha.host[44] txrate 1000Bps
attr unit Bps
par Aloha.host[45] typename "\"Host\""
par Aloha.host[45] arrrate 0.9
par Aloha.host[45] packet_size 1B
attr unit B
par Aloha.host[45] x 158.035m
attr unit m
par Aloha.host[45] y 45.2822m
attr unit m
par Aloha.host[45] txrate 1000Bps
attr unit Bps
par Aloha.host[46] typename "\"Host\""
par Aloha.host[46] arrrate 0.9
par Aloha.host[46] packet_size 1B
attr unit B
par Aloha.host[46] x 197.719m
attr unit m
par Aloha.host[46] y 113.987m
attr unit m
par Aloha.host[46] txrate 1000Bps
attr unit Bps
par Aloha.host[47] typename "\"Host\""
par Aloha.host[47] arrrate 0.9
par Aloha.host[47] packet_size 1B
attr unit B
par Aloha.host[47] x 116.793m
attr unit m
par Aloha.host[47] y 52.2514m
attr unit m
par Aloha.host[47] txrate 1000Bps
attr unit Bps
par Aloha.host[48] typename "\"Host\""
par Aloha.host[48] arrrate 0.9
par Aloha.host[48] packet_size 1B
attr unit B
par Aloha.host[48] x 7.78246m
attr unit m
par Aloha.host[48] y 36.1624m
attr unit m
par Aloha.host[48] txrate 1000Bps
attr unit Bps
par Aloha.host[49] typename "\"Host\""
par Aloha.host[49] arrrate 0.9
par Aloha.host[49] packet_size 1B
attr unit B
par Aloha.host[49] x 89.2846m
attr unit m
par Aloha.host[49] y 74.8414m
attr unit m
par Aloha.host[49] txrate 1000Bps
attr unit Bps
par Aloha.host[50] typename "\"Host\""
par Aloha.host[50] arrrate 0.9
par Aloha.host[50] packet_size 1B
attr unit B
par Aloha.host[50] x 37.6345m
attr unit m
par Aloha.host[50] y 94.9428m
attr unit m
par Aloha.host[50] txrate 1000Bps
attr unit Bps
par Aloha.host[51] typename "\"Host\""
par Aloha.host[51] arrrate 0.9
par Aloha.host[51] packet_size 1B
attr unit B
par Aloha.host[51] x 125.411m
attr unit m
par Aloha.host[51] y 50.0964m
attr unit m
par Aloha.host[51] txrate 1000Bps
attr unit Bps
par Aloha.host[52] typename "\"Host\""
par Aloha.host[52] arrrate 0.9
par Aloha.host[52] packet_size 1B
attr unit B
par Aloha.host[52] x 43.0636m
attr unit m
par Aloha.host[52] y 168.638m
attr unit m
par Aloha.host[52] txrate 1000Bps
attr unit Bps
par Aloha.host[53] typename "\"Host\""
par Aloha.host[53] arrrate 0.9
par Aloha.host[53] packet_size 1B
attr unit B
par Aloha.host[53] x 30.194m
attr unit m
par Aloha.host[53] y 169.141m
attr unit m
par Aloha.host[53] txrate 1000Bps
attr unit Bps
par Aloha.host[54] typename "\"Host\""
par Aloha.host[54] arrrate 0.9
par Aloha.host[54] packet_size 1B
attr unit B
par Aloha.host[54] x 107.229m
attr unit m
par Aloha.host[54] y 144.534m
attr unit m
par Aloha.host[54] txrate 1000Bps
attr unit Bps
par Aloha.host[55] typename "\"Host\""
par Aloha.host[55] arrrate 0.9
par Aloha.host[55] packet_size 1B
attr unit B
par Aloha.host[55] x 20.0774m
attr unit m
par Aloha.host[55] y 88.4045m
attr unit m
par Aloha.host[55] txrate 1000Bps
attr unit Bps
par Aloha.host[56] typename "\"Host\""
par Aloha.host[56] arrrate 0.9
par Aloha.host[56] packet_size 1B
attr unit B
par Aloha.host[56] x 146.232m
attr unit m
par Aloha.host[56] y 109.697m
attr unit m
par Aloha.host[56] txrate 1000Bps
attr unit Bps
par Aloha.host[57] typename "\"Host\""
par Aloha.host[57] arrrate 0.9
par Aloha.host[57] packet_size 1B
attr unit B
par Aloha.host[57] x 187.93m
attr unit m
par Aloha.host[57] y 125.327m
attr unit m
par Aloha.host[57] txrate 1000Bps
attr unit Bps
par Aloha.host[58] typename "\"Host\""
par Aloha.host[58] arrrate 0.9
par Aloha.host[58] packet_size 1B
attr unit B
par Aloha.host[58] x 188.664m
attr unit m
par Aloha.host[58] y 99.9472m
attr unit m
par Aloha.host[58] txrate 1000Bps
attr unit Bps
par Aloha.host[59] typename "\"Host\""
par Aloha.host[59] arrrate 0.9
par Aloha.host[59] packet_size 1B
attr unit B
par Aloha.host[59] x 74.9477m
attr unit m
par Aloha.host[59] y 147.521m
attr unit m
par Aloha.host[59] txrate 1000Bps
attr unit Bps
par Aloha.host[60] typename "\"Host\""
par Aloha.host[60] arrrate 0.9
par Aloha.host[60] packet_size 1B
attr unit B
par Aloha.host[60] x 119.15m
attr unit m
par Aloha.host[60] y 91.3306m
attr unit m
par Aloha.host[60] txrate 1000Bps
attr unit Bps
par Aloha.host[61] typename "\"Host\""
par Aloha.host[61] arrrate 0.9
par Aloha.host[61] packet_size 1B
attr unit B
par Aloha.host[61] x 132.397m
attr unit m
par Aloha.host[61] y 123.351m
attr unit m
par Aloha.host[61] txrate 1000Bps
attr unit Bps
par Aloha.host[62] typename "\"Host\""
par Aloha.host[62] arrrate 0.9
par Aloha.host[62] packet_size 1B
attr unit B
par Aloha.host[62] x 102.116m
attr unit m
par Aloha.host[62] y 133.06m
attr unit m
par Aloha.host[62] txrate 1000Bps
attr unit Bps
par Aloha.host[63] typename "\"Host\""
par Aloha.host[63] arrrate 0.9
par Aloha.host[63] packet_size 1B
attr unit B
par Aloha.host[63] x 94.1785m
attr unit m
par Aloha.host[63] y 88.0584m
attr unit m
par Aloha.host[63] txrate 1000Bps
attr unit Bps
par Aloha.host[64] typename "\"Host\""
par Aloha.host[64] arrrate 0.9
par Aloha.host[64] packet_size 1B
attr unit B
par Aloha.host[64] x 1.77446m
attr unit m
par Aloha.host[64] y 2.68122m
attr unit m
par Aloha.host[64] txrate 1000Bps
attr unit Bps
par Aloha.host[65] typename "\"Host\""
par Aloha.host[65] arrrate 0.9
par Aloha.host[65] packet_size 1B
attr unit B
par Aloha.host[65] x 13.5793m
attr unit m
par Aloha.host[65] y 5.18299m
attr unit m
par Aloha.host[65] txrate 1000Bps
attr unit Bps
par Aloha.host[66] typename "\"Host\""
par Aloha.host[66] arrrate 0.9
par Aloha.host[66] packet_size 1B
attr unit B
par Aloha.host[66] x 86.9632m
attr unit m
par Aloha.host[66] y 54.2349m
attr unit m
par Aloha.host[66] txrate 1000Bps
attr unit Bps
par Aloha.host[67] typename "\"Host\""
par Aloha.host[67] arrrate 0.9
par Aloha.host[67] packet_size 1B
attr unit B
par Aloha.host[67] x 86.2987m
attr unit m
par Aloha.host[67] y 156.647m
attr unit m
par Aloha.host[67] txrate 1000Bps
attr unit Bps
par Aloha.host[68] typename "\"Host\""
par Aloha.host[68] arrrate 0.9
par Aloha.host[68] packet_size 1B
attr unit B
par Aloha.host[68] x 37.1767m
attr unit m
par Aloha.host[68] y 188.546m
attr unit m
par Aloha.host[68] txrate 1000Bps
attr unit Bps
par Aloha.host[69] typename "\"Host\""
par Aloha.host[69] arrrate 0.9
par Aloha.host[69] packet_size 1B
attr unit B
par Aloha.host[69] x 105.941m
attr unit m
par Aloha.host[69] y 23.45m
attr unit m
par Aloha.host[69] txrate 1000Bps
attr unit Bps
par Aloha.host[70] typename "\"Host\""
par Aloha.host[70] arrrate 0.9
par Aloha.host[70] packet_size 1B
attr unit B
par Aloha.host[70] x 119.817m
attr unit m
par Aloha.host[70] y 149.132m
attr unit m
par Aloha.host[70] txrate 1000Bps
attr unit Bps
par Aloha.host[71] typename "\"Host\""
par Aloha.host[71] arrrate 0.9
par Aloha.host[71] packet_size 1B
attr unit B
par Aloha.host[71] x 144.185m
attr unit m
par Aloha.host[71] y 195.684m
attr unit m
par Aloha.host[71] txrate 1000Bps
attr unit Bps
par Aloha.host[72] typename "\"Host\""
par Aloha.host[72] arrrate 0.9
par Aloha.host[72] packet_size 1B
attr unit B
par Aloha.host[72] x 61.2792m
attr unit m
par Aloha.host[72] y 149.346m
attr unit m
par Aloha.host[72] txrate 1000Bps
attr unit Bps
par Aloha.host[73] typename "\"Host\""
par Aloha.host[73] arrrate 0.9
par Aloha.host[73] packet_size 1B
attr unit B
par Aloha.host[73] x 80.8791m
attr unit m
par Aloha.host[73] y 99.1146m
attr unit m
par Aloha.host[73] txrate 1000Bps
attr unit Bps
par Aloha.host[74] typename "\"Host\""
par Aloha.host[74] arrrate 0.9
par Aloha.host[74] packet_size 1B
attr unit B
par Aloha.host[74] x 164.556m
attr unit m
par Aloha.host[74] y 23.5037m
attr unit m
par Aloha.host[74] txrate 1000Bps
attr unit Bps
par Aloha.host[75] typename "\"Host\""
par Aloha.host[75] arrrate 0.9
par Aloha.host[75] packet_size 1B
attr unit B
par Aloha.host[75] x 117.426m
attr unit m
par Aloha.host[75] y 156.529m
attr unit m
par Aloha.host[75] txrate 1000Bps
attr unit Bps
par Aloha.host[76] typename "\"Host\""
par Aloha.host[76] arrrate 0.9
par Aloha.host[76] packet_size 1B
attr unit B
par Aloha.host[76] x 141.303m
attr unit m
par Aloha.host[76] y 6.51315m
attr unit m
par Aloha.host[76] txrate 1000Bps
attr unit Bps
par Aloha.host[77] typename "\"Host\""
par Aloha.host[77] arrrate 0.9
par Aloha.host[77] packet_size 1B
attr unit B
par Aloha.host[77] x 102.116m
attr unit m
par Aloha.host[77] y 21.3636m
attr unit m
par Aloha.host[77] txrate 1000Bps
attr unit Bps
par Aloha.host[78] typename "\"Host\""
par Aloha.host[78] arrrate 0.9
par Aloha.host[78] packet_size 1B
attr unit B
par Aloha.host[78] x 166.012m
attr unit m
par Aloha.host[78] y 47.6805m
attr unit m
par Aloha.host[78] txrate 1000Bps
attr unit Bps
par Aloha.host[79] typename "\"Host\""
par Aloha.host[79] arrrate 0.9
par Aloha.host[79] packet_size 1B
attr unit B
par Aloha.host[79] x 144.136m
attr unit m
par Aloha.host[79] y 64.0759m
attr unit m
par Aloha.host[79] txrate 1000Bps
attr unit Bps
par Aloha.host[80] typename "\"Host\""
par Aloha.host[80] arrrate 0.9
par Aloha.host[80] packet_size 1B
attr unit B
par Aloha.host[80] x 173.252m
attr unit m
par Aloha.host[80] y 185.966m
attr unit m
par Aloha.host[80] txrate 1000Bps
attr unit Bps
par Aloha.host[81] typename "\"Host\""
par Aloha.host[81] arrrate 0.9
par Aloha.host[81] packet_size 1B
attr unit B
par Aloha.host[81] x 40.682m
attr unit m
par Aloha.host[81] y 94.2476m
attr unit m
par Aloha.host[81] txrate 1000Bps
attr unit Bps
par Aloha.host[82] typename "\"Host\""
par Aloha.host[82] arrrate 0.9
par Aloha.host[82] packet_size 1B
attr unit B
par Aloha.host[82] x 59.707m
attr unit m
par Aloha.host[82] y 93.6212m
attr unit m
par Aloha.host[82] txrate 1000Bps
attr unit Bps
par Aloha.host[83] typename "\"Host\""
par Aloha.host[83] arrrate 0.9
par Aloha.host[83] packet_size 1B
attr unit B
par Aloha.host[83] x 95.1608m
attr unit m
par Aloha.host[83] y 162.932m
attr unit m
par Aloha.host[83] txrate 1000Bps
attr unit Bps
par Aloha.host[84] typename "\"Host\""
par Aloha.host[84] arrrate 0.9
par Aloha.host[84] packet_size 1B
attr unit B
par Aloha.host[84] x 98.7209m
attr unit m
par Aloha.host[84] y 48.32m
attr unit m
par Aloha.host[84] txrate 1000Bps
attr unit Bps
par Aloha.host[85] typename "\"Host\""
par Aloha.host[85] arrrate 0.9
par Aloha.host[85] packet_size 1B
attr unit B
par Aloha.host[85] x 121.535m
attr unit m
par Aloha.host[85] y 124.954m
attr unit m
par Aloha.host[85] txrate 1000Bps
attr unit Bps
par Aloha.host[86] typename "\"Host\""
par Aloha.host[86] arrrate 0.9
par Aloha.host[86] packet_size 1B
attr unit B
par Aloha.host[86] x 163.787m
attr unit m
par Aloha.host[86] y 105.537m
attr unit m
par Aloha.host[86] txrate 1000Bps
attr unit Bps
par Aloha.host[87] typename "\"Host\""
par Aloha.host[87] arrrate 0.9
par Aloha.host[87] packet_size 1B
attr unit B
par Aloha.host[87] x 105.545m
attr unit m
par Aloha.host[87] y 120.832m
attr unit m
par Aloha.host[87] txrate 1000Bps
attr unit Bps
par Aloha.host[88] typename "\"Host\""
par Aloha.host[88] arrrate 0.9
par Aloha.host[88] packet_size 1B
attr unit B
par Aloha.host[88] x 187.841m
attr unit m
par Aloha.host[88] y 53.0654m
attr unit m
par Aloha.host[88] txrate 1000Bps
attr unit Bps
par Aloha.host[89] typename "\"Host\""
par Aloha.host[89] arrrate 0.9
par Aloha.host[89] packet_size 1B
attr unit B
par Aloha.host[89] x 144.677m
attr unit m
par Aloha.host[89] y 86.4946m
attr unit m
par Aloha.host[89] txrate 1000Bps
attr unit Bps
par Aloha.host[90] typename "\"Host\""
par Aloha.host[90] arrrate 0.9
par Aloha.host[90] packet_size 1B
attr unit B
par Aloha.host[90] x 35.7514m
attr unit m
par Aloha.host[90] y 101.4m
attr unit m
par Aloha.host[90] txrate 1000Bps
attr unit Bps
par Aloha.host[91] typename "\"Host\""
par Aloha.host[91] arrrate 0.9
par Aloha.host[91] packet_size 1B
attr unit B
par Aloha.host[91] x 123.945m
attr unit m
par Aloha.host[91] y 79.8713m
attr unit m
par Aloha.host[91] txrate 1000Bps
attr unit Bps
par Aloha.host[92] typename "\"Host\""
par Aloha.host[92] arrrate 0.9
par Aloha.host[92] packet_size 1B
attr unit B
par Aloha.host[92] x 112.457m
attr unit m
par Aloha.host[92] y 57.4964m
attr unit m
par Aloha.host[92] txrate 1000Bps
attr unit Bps
par Aloha.host[93] typename "\"Host\""
par Aloha.host[93] arrrate 0.9
par Aloha.host[93] packet_size 1B
attr unit B
par Aloha.host[93] x 152.681m
attr unit m
par Aloha.host[93] y 184.263m
attr unit m
par Aloha.host[93] txrate 1000Bps
attr unit Bps
par Aloha.host[94] typename "\"Host\""
par Aloha.host[94] arrrate 0.9
par Aloha.host[94] packet_size 1B
attr unit B
par Aloha.host[94] x 161.329m
attr unit m
par Aloha.host[94] y 82.3691m
attr unit m
par Aloha.host[94] txrate 1000Bps
attr unit Bps
par Aloha.host[95] typename "\"Host\""
par Aloha.host[95] arrrate 0.9
par Aloha.host[95] packet_size 1B
attr unit B
par Aloha.host[95] x 59.725m
attr unit m
par Aloha.host[95] y 42.0353m
attr unit m
par Aloha.host[95] txrate 1000Bps
attr unit Bps
par Aloha.host[96] typename "\"Host\""
par Aloha.host[96] arrrate 0.9
par Aloha.host[96] packet_size 1B
attr unit B
par Aloha.host[96] x 27.6769m
attr unit m
par Aloha.host[96] y 185.076m
attr unit m
par Aloha.host[96] txrate 1000Bps
attr unit Bps
par Aloha.host[97] typename "\"Host\""
par Aloha.host[97] arrrate 0.9
par Aloha.host[97] packet_size 1B
attr unit B
par Aloha.host[97] x 127.08m
attr unit m
par Aloha.host[97] y 83.4052m
attr unit m
par Aloha.host[97] txrate 1000Bps
attr unit Bps
par Aloha.host[98] typename "\"Host\""
par Aloha.host[98] arrrate 0.9
par Aloha.host[98] packet_size 1B
attr unit B
par Aloha.host[98] x 1.66168m
attr unit m
par Aloha.host[98] y 27.9426m
attr unit m
par Aloha.host[98] txrate 1000Bps
attr unit Bps
par Aloha.host[99] typename "\"Host\""
par Aloha.host[99] arrrate 0.9
par Aloha.host[99] packet_size 1B
attr unit B
par Aloha.host[99] x 157.717m
attr unit m
par Aloha.host[99] y 19.946m
attr unit m
par Aloha.host[99] txrate 1000Bps
attr unit Bps
par Aloha.host[100] typename "\"Host\""
par Aloha.host[100] arrrate 0.9
par Aloha.host[100] packet_size 1B
attr unit B
par Aloha.host[100] x 100.415m
attr unit m
par Aloha.host[100] y 183.94m
attr unit m
par Aloha.host[100] txrate 1000Bps
attr unit Bps
par Aloha.host[101] typename "\"Host\""
par Aloha.host[101] arrrate 0.9
par Aloha.host[101] packet_size 1B
attr unit B
par Aloha.host[101] x 199.424m
attr unit m
par Aloha.host[101] y 59.5666m
attr unit m
par Aloha.host[101] txrate 1000Bps
attr unit Bps
par Aloha.host[102] typename "\"Host\""
par Aloha.host[102] arrrate 0.9
par Aloha.host[102] packet_size 1B
attr unit B
par Aloha.host[102] x 196.808m
attr unit m
par Aloha.host[102] y 190.024m
attr unit m
par Aloha.host[102] txrate 1000Bps
attr unit Bps
par Aloha.host[103] typename "\"Host\""
par Aloha.host[103] arrrate 0.9
par Aloha.host[103] packet_size 1B
attr unit B
par Aloha.host[103] x 45.4157m
attr unit m
par Aloha.host[103] y 67.4735m
attr unit m
par Aloha.host[103] txrate 1000Bps
attr unit Bps
par Aloha.host[104] typename "\"Host\""
par Aloha.host[104] arrrate 0.9
par Aloha.host[104] packet_size 1B
attr unit B
par Aloha.host[104] x 169.991m
attr unit m
par Aloha.host[104] y 77.2602m
attr unit m
par Aloha.host[104] txrate 1000Bps
attr unit Bps
par Aloha.host[105] typename "\"Host\""
par Aloha.host[105] arrrate 0.9
par Aloha.host[105] packet_size 1B
attr unit B
par Aloha.host[105] x 162.564m
attr unit m
par Aloha.host[105] y 182.383m
attr unit m
par Aloha.host[105] txrate 1000Bps
attr unit Bps
par Aloha.host[106] typename "\"Host\""
par Aloha.host[106] arrrate 0.9
par Aloha.host[106] packet_size 1B
attr unit B
par Aloha.host[106] x 47.2269m
attr unit m
par Aloha.host[106] y 135.594m
attr unit m
par Aloha.host[106] txrate 1000Bps
attr unit Bps
par Aloha.host[107] typename "\"Host\""
par Aloha.host[107] arrrate 0.9
par Aloha.host[107] packet_size 1B
attr unit B
par Aloha.host[107] x 131.371m
attr unit m
par Aloha.host[107] y 155.518m
attr unit m
par Aloha.host[107] txrate 1000Bps
attr unit Bps
par Aloha.host[108] typename "\"Host\""
par Aloha.host[108] arrrate 0.9
par Aloha.host[108] packet_size 1B
attr unit B
par Aloha.host[108] x 195.434m
attr unit m
par Aloha.host[108] y 139.058m
attr unit m
par Aloha.host[108] txrate 1000Bps
attr unit Bps
par Aloha.host[109] typename "\"Host\""
par Aloha.host[109] arrrate 0.9
par Aloha.host[109] packet_size 1B
attr unit B
par Aloha.host[109] x 146.314m
attr unit m
par Aloha.host[109] y 186.623m
attr unit m
par Aloha.host[109] txrate 1000Bps
attr unit Bps
par Aloha.host[110] typename "\"Host\""
par Aloha.host[110] arrrate 0.9
par Aloha.host[110] packet_size 1B
attr unit B
par Aloha.host[110] x 19.1257m
attr unit m
par Aloha.host[110] y 77.2336m
attr unit m
par Aloha.host[110] txrate 1000Bps
attr unit Bps
par Aloha.host[111] typename "\"Host\""
par Aloha.host[111] arrrate 0.9
par Aloha.host[111] packet_size 1B
attr unit B
par Aloha.host[111] x 100.121m
attr unit m
par Aloha.host[111] y 32.5547m
attr unit m
par Aloha.host[111] txrate 1000Bps
attr unit Bps
par Aloha.host[112] typename "\"Host\""
par Aloha.host[112] arrrate 0.9
par Aloha.host[112] packet_size 1B
attr unit B
par Aloha.host[112] x 92.472m
attr unit m
par Aloha.host[112] y 51.8549m
attr unit m
par Aloha.host[112] txrate 1000Bps
attr unit Bps
par Aloha.host[113] typename "\"Host\""
par Aloha.host[113] arrrate 0.9
par Aloha.host[113] packet_size 1B
attr unit B
par Aloha.host[113] x 0.148779m
attr unit m
par Aloha.host[113] y 30.1954m
attr unit m
par Aloha.host[113] txrate 1000Bps
attr unit Bps
par Aloha.host[114] typename "\"Host\""
par Aloha.host[114] arrrate 0.9
par Aloha.host[114] packet_size 1B
attr unit B
par Aloha.host[114] x 197.788m
attr unit m
par Aloha.host[114] y 143.865m
attr unit m
par Aloha.host[114] txrate 1000Bps
attr unit Bps
par Aloha.host[115] typename "\"Host\""
par Aloha.host[115] arrrate 0.9
par Aloha.host[115] packet_size 1B
attr unit B
par Aloha.host[115] x 175.524m
attr unit m
par Aloha.host[115] y 110.403m
attr unit m
par Aloha.host[115] txrate 1000Bps
attr unit Bps
par Aloha.host[116] typename "\"Host\""
par Aloha.host[116] arrrate 0.9
par Aloha.host[116] packet_size 1B
attr unit B
par Aloha.host[116] x 43.4422m
attr unit m
par Aloha.host[116] y 88.135m
attr unit m
par Aloha.host[116] txrate 1000Bps
attr unit Bps
par Aloha.host[117] typename "\"Host\""
par Aloha.host[117] arrrate 0.9
par Aloha.host[117] packet_size 1B
attr unit B
par Aloha.host[117] x 121.076m
attr unit m
par Aloha.host[117] y 161.699m
attr unit m
par Aloha.host[117] txrate 1000Bps
attr unit Bps
par Aloha.host[118] typename "\"Host\""
par Aloha.host[118] arrrate 0.9
par Aloha.host[118] packet_size 1B
attr unit B
par Aloha.host[118] x 94.3906m
attr unit m
par Aloha.host[118] y 112.169m
attr unit m
par Aloha.host[118] txrate 1000Bps
attr unit Bps
par Aloha.host[119] typename "\"Host\""
par Aloha.host[119] arrrate 0.9
par Aloha.host[119] packet_size 1B
attr unit B
par Aloha.host[119] x 71.8218m
attr unit m
par Aloha.host[119] y 129.62m
attr unit m
par Aloha.host[119] txrate 1000Bps
attr unit Bps
par Aloha.host[120] typename "\"Host\""
par Aloha.host[120] arrrate 0.9
par Aloha.host[120] packet_size 1B
attr unit B
par Aloha.host[120] x 105.858m
attr unit m
par Aloha.host[120] y 79.2745m
attr unit m
par Aloha.host[120] txrate 1000Bps
attr unit Bps
par Aloha.host[121] typename "\"Host\""
par Aloha.host[121] arrrate 0.9
par Aloha.host[121] packet_size 1B
attr unit B
par Aloha.host[121] x 112.965m
attr unit m
par Aloha.host[121] y 127.573m
attr unit m
par Aloha.host[121] txrate 1000Bps
attr unit Bps
par Aloha.host[122] typename "\"Host\""
par Aloha.host[122] arrrate 0.9
par Aloha.host[122] packet_size 1B
attr unit B
par Aloha.host[122] x 166.71m
attr unit m
par Aloha.host[122] y 24.8671m
attr unit m
par Aloha.host[122] txrate 1000Bps
attr unit Bps
par Aloha.host[123] typename "\"Host\""
par Aloha.host[123] arrrate 0.9
par Aloha.host[123] packet_size 1B
attr unit B
par Aloha.host[123] x 12.5627m
attr unit m
par Aloha.host[123] y 86.4133m
attr unit m
par Aloha.host[123] txrate 1000Bps
attr unit Bps
par Aloha.host[124] typename "\"Host\""
par Aloha.host[124] arrrate 0.9
par Aloha.host[124] packet_size 1B
attr unit B
par Aloha.host[124] x 121.273m
attr unit m
par Aloha.host[124] y 99.0443m
attr unit m
par Aloha.host[124] txrate 1000Bps
attr unit Bps
par Aloha.host[125] typename "\"Host\""
par Aloha.host[125] arrrate 0.9
par Aloha.host[125] packet_size 1B
attr unit B
par Aloha.host[125] x 100.723m
attr unit m
par Aloha.host[125] y 83.5565m
attr unit m
par Aloha.host[125] txrate 1000Bps
attr unit Bps
par Aloha.host[126] typename "\"Host\""
par Aloha.host[126] arrrate 0.9
par Aloha.host[126] packet_size 1B
attr unit B
par Aloha.host[126] x 32.0597m
attr unit m
par Aloha.host[126] y 70.4832m
attr unit m
par Aloha.host[126] txrate 1000Bps
attr unit Bps
par Aloha.host[127] typename "\"Host\""
par Aloha.host[127] arrrate 0.9
par Aloha.host[127] packet_size 1B
attr unit B
par Aloha.host[127] x 29.0891m
attr unit m
par Aloha.host[127] y 135.939m
attr unit m
par Aloha.host[127] txrate 1000Bps
attr unit Bps
par Aloha.host[128] typename "\"Host\""
par Aloha.host[128] arrrate 0.9
par Aloha.host[128] packet_size 1B
attr unit B
par Aloha.host[128] x 127.568m
attr unit m
par Aloha.host[128] y 65.2196m
attr unit m
par Aloha.host[128] txrate 1000Bps
attr unit Bps
par Aloha.host[129] typename "\"Host\""
par Aloha.host[129] arrrate 0.9
par Aloha.host[129] packet_size 1B
attr unit B
par Aloha.host[129] x 176.581m
attr unit m
par Aloha.host[129] y 39.3085m
attr unit m
par Aloha.host[129] txrate 1000Bps
attr unit Bps
par Aloha.host[130] typename "\"Host\""
par Aloha.host[130] arrrate 0.9
par Aloha.host[130] packet_size 1B
attr unit B
par Aloha.host[130] x 6.57316m
attr unit m
par Aloha.host[130] y 92.2483m
attr unit m
par Aloha.host[130] txrate 1000Bps
attr unit Bps
par Aloha.host[131] typename "\"Host\""
par Aloha.host[131] arrrate 0.9
par Aloha.host[131] packet_size 1B
attr unit B
par Aloha.host[131] x 85.6044m
attr unit m
par Aloha.host[131] y 29.8582m
attr unit m
par Aloha.host[131] txrate 1000Bps
attr unit Bps
par Aloha.host[132] typename "\"Host\""
par Aloha.host[132] arrrate 0.9
par Aloha.host[132] packet_size 1B
attr unit B
par Aloha.host[132] x 175.579m
attr unit m
par Aloha.host[132] y 144.019m
attr unit m
par Aloha.host[132] txrate 1000Bps
attr unit Bps
par Aloha.host[133] typename "\"Host\""
par Aloha.host[133] arrrate 0.9
par Aloha.host[133] packet_size 1B
attr unit B
par Aloha.host[133] x 95.3014m
attr unit m
par Aloha.host[133] y 116.887m
attr unit m
par Aloha.host[133] txrate 1000Bps
attr unit Bps
par Aloha.host[134] typename "\"Host\""
par Aloha.host[134] arrrate 0.9
par Aloha.host[134] packet_size 1B
attr unit B
par Aloha.host[134] x 73.5141m
attr unit m
par Aloha.host[134] y 85.9156m
attr unit m
par Aloha.host[134] txrate 1000Bps
attr unit Bps
par Aloha.host[135] typename "\"Host\""
par Aloha.host[135] arrrate 0.9
par Aloha.host[135] packet_size 1B
attr unit B
par Aloha.host[135] x 48.1301m
attr unit m
par Aloha.host[135] y 9.43066m
attr unit m
par Aloha.host[135] txrate 1000Bps
attr unit Bps
par Aloha.host[136] typename "\"Host\""
par Aloha.host[136] arrrate 0.9
par Aloha.host[136] packet_size 1B
attr unit B
par Aloha.host[136] x 9.64635m
attr unit m
par Aloha.host[136] y 109.661m
attr unit m
par Aloha.host[136] txrate 1000Bps
attr unit Bps
par Aloha.host[137] typename "\"Host\""
par Aloha.host[137] arrrate 0.9
par Aloha.host[137] packet_size 1B
attr unit B
par Aloha.host[137] x 35.0334m
attr unit m
par Aloha.host[137] y 25.3059m
attr unit m
par Aloha.host[137] txrate 1000Bps
attr unit Bps
par Aloha.host[138] typename "\"Host\""
par Aloha.host[138] arrrate 0.9
par Aloha.host[138] packet_size 1B
attr unit B
par Aloha.host[138] x 111.355m
attr unit m
par Aloha.host[138] y 115.739m
attr unit m
par Aloha.host[138] txrate 1000Bps
attr unit Bps
par Aloha.host[139] typename "\"Host\""
par Aloha.host[139] arrrate 0.9
par Aloha.host[139] packet_size 1B
attr unit B
par Aloha.host[139] x 106.017m
attr unit m
par Aloha.host[139] y 34.0811m
attr unit m
par Aloha.host[139] txrate 1000Bps
attr unit Bps
par Aloha.host[140] typename "\"Host\""
par Aloha.host[140] arrrate 0.9
par Aloha.host[140] packet_size 1B
attr unit B
par Aloha.host[140] x 108.844m
attr unit m
par Aloha.host[140] y 10.4901m
attr unit m
par Aloha.host[140] txrate 1000Bps
attr unit Bps
par Aloha.host[141] typename "\"Host\""
par Aloha.host[141] arrrate 0.9
par Aloha.host[141] packet_size 1B
attr unit B
par Aloha.host[141] x 59.8105m
attr unit m
par Aloha.host[141] y 94.2982m
attr unit m
par Aloha.host[141] txrate 1000Bps
attr unit Bps
par Aloha.host[142] typename "\"Host\""
par Aloha.host[142] arrrate 0.9
par Aloha.host[142] packet_size 1B
attr unit B
par Aloha.host[142] x 173.085m
attr unit m
par Aloha.host[142] y 45.2412m
attr unit m
par Aloha.host[142] txrate 1000Bps
attr unit Bps
par Aloha.host[143] typename "\"Host\""
par Aloha.host[143] arrrate 0.9
par Aloha.host[143] packet_size 1B
attr unit B
par Aloha.host[143] x 169.389m
attr unit m
par Aloha.host[143] y 162.456m
attr unit m
par Aloha.host[143] txrate 1000Bps
attr unit Bps
par Aloha.host[144] typename "\"Host\""
par Aloha.host[144] arrrate 0.9
par Aloha.host[144] packet_size 1B
attr unit B
par Aloha.host[144] x 93.1401m
attr unit m
par Aloha.host[144] y 27.5828m
attr unit m
par Aloha.host[144] txrate 1000Bps
attr unit Bps
par Aloha.host[145] typename "\"Host\""
par Aloha.host[145] arrrate 0.9
par Aloha.host[145] packet_size 1B
attr unit B
par Aloha.host[145] x 150.272m
attr unit m
par Aloha.host[145] y 17.3535m
attr unit m
par Aloha.host[145] txrate 1000Bps
attr unit Bps
par Aloha.host[146] typename "\"Host\""
par Aloha.host[146] arrrate 0.9
par Aloha.host[146] packet_size 1B
attr unit B
par Aloha.host[146] x 156.714m
attr unit m
par Aloha.host[146] y 85.235m
attr unit m
par Aloha.host[146] txrate 1000Bps
attr unit Bps
par Aloha.host[147] typename "\"Host\""
par Aloha.host[147] arrrate 0.9
par Aloha.host[147] packet_size 1B
attr unit B
par Aloha.host[147] x 73.6194m
attr unit m
par Aloha.host[147] y 138.718m
attr unit m
par Aloha.host[147] txrate 1000Bps
attr unit Bps
par Aloha.host[148] typename "\"Host\""
par Aloha.host[148] arrrate 0.9
par Aloha.host[148] packet_size 1B
attr unit B
par Aloha.host[148] x 35.4626m
attr unit m
par Aloha.host[148] y 102.346m
attr unit m
par Aloha.host[148] txrate 1000Bps
attr unit Bps
par Aloha.host[149] typename "\"Host\""
par Aloha.host[149] arrrate 0.9
par Aloha.host[149] packet_size 1B
attr unit B
par Aloha.host[149] x 50.5741m
attr unit m
par Aloha.host[149] y 95.6514m
attr unit m
par Aloha.host[149] txrate 1000Bps
attr unit Bps
par Aloha.host[150] typename "\"Host\""
par Aloha.host[150] arrrate 0.9
par Aloha.host[150] packet_size 1B
attr unit B
par Aloha.host[150] x 47.4182m
attr unit m
par Aloha.host[150] y 68.2768m
attr unit m
par Aloha.host[150] txrate 1000Bps
attr unit Bps
par Aloha.host[151] typename "\"Host\""
par Aloha.host[151] arrrate 0.9
par Aloha.host[151] packet_size 1B
attr unit B
par Aloha.host[151] x 78.3791m
attr unit m
par Aloha.host[151] y 184.946m
attr unit m
par Aloha.host[151] txrate 1000Bps
attr unit Bps
par Aloha.host[152] typename "\"Host\""
par Aloha.host[152] arrrate 0.9
par Aloha.host[152] packet_size 1B
attr unit B
par Aloha.host[152] x 1.44128m
attr unit m
par Aloha.host[152] y 182.351m
attr unit m
par Aloha.host[152] txrate 1000Bps
attr unit Bps
par Aloha.host[153] typename "\"Host\""
par Aloha.host[153] arrrate 0.9
par Aloha.host[153] packet_size 1B
attr unit B
par Aloha.host[153] x 56.1782m
attr unit m
par Aloha.host[153] y 141.58m
attr unit m
par Aloha.host[153] txrate 1000Bps
attr unit Bps
par Aloha.host[154] typename "\"Host\""
par Aloha.host[154] arrrate 0.9
par Aloha.host[154] packet_size 1B
attr unit B
par Aloha.host[154] x 107.414m
attr unit m
par Aloha.host[154] y 174.636m
attr unit m
par Aloha.host[154] txrate 1000Bps
attr unit Bps
par Aloha.host[155] typename "\"Host\""
par Aloha.host[155] arrrate 0.9
par Aloha.host[155] packet_size 1B
attr unit B
par Aloha.host[155] x 84.6119m
attr unit m
par Aloha.host[155] y 109.784m
attr unit m
par Aloha.host[155] txrate 1000Bps
attr unit Bps
par Aloha.host[156] typename "\"Host\""
par Aloha.host[156] arrrate 0.9
par Aloha.host[156] packet_size 1B
attr unit B
par Aloha.host[156] x 106.365m
attr unit m
par Aloha.host[156] y 194.268m
attr unit m
par Aloha.host[156] txrate 1000Bps
attr unit Bps
par Aloha.host[157] typename "\"Host\""
par Aloha.host[157] arrrate 0.9
par Aloha.host[157] packet_size 1B
attr unit B
par Aloha.host[157] x 148.015m
attr unit m
par Aloha.host[157] y 154.35m
attr unit m
par Aloha.host[157] txrate 1000Bps
attr unit Bps
par Aloha.host[158] typename "\"Host\""
par Aloha.host[158] arrrate 0.9
par Aloha.host[158] packet_size 1B
attr unit B
par Aloha.host[158] x 186.243m
attr unit m
par Aloha.host[158] y 111.628m
attr unit m
par Aloha.host[158] txrate 1000Bps
attr unit Bps
par Aloha.host[159] typename "\"Host\""
par Aloha.host[159] arrrate 0.9
par Aloha.host[159] packet_size 1B
attr unit B
par Aloha.host[159] x 65.1994m
attr unit m
par Aloha.host[159] y 143.347m
attr unit m
par Aloha.host[159] txrate 1000Bps
attr unit Bps
par Aloha.host[160] typename "\"Host\""
par Aloha.host[160] arrrate 0.9
par Aloha.host[160] packet_size 1B
attr unit B
par Aloha.host[160] x 54.1147m
attr unit m
par Aloha.host[160] y 76.2794m
attr unit m
par Aloha.host[160] txrate 1000Bps
attr unit Bps
par Aloha.host[161] typename "\"Host\""
par Aloha.host[161] arrrate 0.9
par Aloha.host[161] packet_size 1B
attr unit B
par Aloha.host[161] x 95.2448m
attr unit m
par Aloha.host[161] y 96.813m
attr unit m
par Aloha.host[161] txrate 1000Bps
attr unit Bps
par Aloha.host[162] typename "\"Host\""
par Aloha.host[162] arrrate 0.9
par Aloha.host[162] packet_size 1B
attr unit B
par Aloha.host[162] x 121.923m
attr unit m
par Aloha.host[162] y 137.82m
attr unit m
par Aloha.host[162] txrate 1000Bps
attr unit Bps
par Aloha.host[163] typename "\"Host\""
par Aloha.host[163] arrrate 0.9
par Aloha.host[163] packet_size 1B
attr unit B
par Aloha.host[163] x 37.4501m
attr unit m
par Aloha.host[163] y 169.531m
attr unit m
par Aloha.host[163] txrate 1000Bps
attr unit Bps
par Aloha.host[164] typename "\"Host\""
par Aloha.host[164] arrrate 0.9
par Aloha.host[164] packet_size 1B
attr unit B
par Aloha.host[164] x 5.59907m
attr unit m
par Aloha.host[164] y 70.1077m
attr unit m
par Aloha.host[164] txrate 1000Bps
attr unit Bps
par Aloha.host[165] typename "\"Host\""
par Aloha.host[165] arrrate 0.9
par Aloha.host[165] packet_size 1B
attr unit B
par Aloha.host[165] x 40.7987m
attr unit m
par Aloha.host[165] y 161.754m
attr unit m
par Aloha.host[165] txrate 1000Bps
attr unit Bps
par Aloha.host[166] typename "\"Host\""
par Aloha.host[166] arrrate 0.9
par Aloha.host[166] packet_size 1B
attr unit B
par Aloha.host[166] x 49.0209m
attr unit m
par Aloha.host[166] y 61.1622m
attr unit m
par Aloha.host[166] txrate 1000Bps
attr unit Bps
par Aloha.host[167] typename "\"Host\""
par Aloha.host[167] arrrate 0.9
par Aloha.host[167] packet_size 1B
attr unit B
par Aloha.host[167] x 87.2661m
attr unit m
par Aloha.host[167] y 147.914m
attr unit m
par Aloha.host[167] txrate 1000Bps
attr unit Bps
par Aloha.host[168] typename "\"Host\""
par Aloha.host[168] arrrate 0.9
par Aloha.host[168] packet_size 1B
attr unit B
par Aloha.host[168] x 126.186m
attr unit m
par Aloha.host[168] y 81.7091m
attr unit m
par Aloha.host[168] txrate 1000Bps
attr unit Bps
par Aloha.host[169] typename "\"Host\""
par Aloha.host[169] arrrate 0.9
par Aloha.host[169] packet_size 1B
attr unit B
par Aloha.host[169] x 60.2847m
attr unit m
par Aloha.host[169] y 194.067m
attr unit m
par Aloha.host[169] txrate 1000Bps
attr unit Bps
par Aloha.host[170] typename "\"Host\""
par Aloha.host[170] arrrate 0.9
par Aloha.host[170] packet_size 1B
attr unit B
par Aloha.host[170] x 195.101m
attr unit m
par Aloha.host[170] y 140.118m
attr unit m
par Aloha.host[170] txrate 1000Bps
attr unit Bps
par Aloha.host[171] typename "\"Host\""
par Aloha.host[171] arrrate 0.9
par Aloha.host[171] packet_size 1B
attr unit B
par Aloha.host[171] x 174.23m
attr unit m
par Aloha.host[171] y 25.8521m
attr unit m
par Aloha.host[171] txrate 1000Bps
attr unit Bps
par Aloha.host[172] typename "\"Host\""
par Aloha.host[172] arrrate 0.9
par Aloha.host[172] packet_size 1B
attr unit B
par Aloha.host[172] x 124.146m
attr unit m
par Aloha.host[172] y 190.142m
attr unit m
par Aloha.host[172] txrate 1000Bps
attr unit Bps
par Aloha.host[173] typename "\"Host\""
par Aloha.host[173] arrrate 0.9
par Aloha.host[173] packet_size 1B
attr unit B
par Aloha.host[173] x 67.5774m
attr unit m
par Aloha.host[173] y 85.1747m
attr unit m
par Aloha.host[173] txrate 1000Bps
attr unit Bps
par Aloha.host[174] typename "\"Host\""
par Aloha.host[174] arrrate 0.9
par Aloha.host[174] packet_size 1B
attr unit B
par Aloha.host[174] x 33.9463m
attr unit m
par Aloha.host[174] y 77.5941m
attr unit m
par Aloha.host[174] txrate 1000Bps
attr unit Bps
par Aloha.host[175] typename "\"Host\""
par Aloha.host[175] arrrate 0.9
par Aloha.host[175] packet_size 1B
attr unit B
par Aloha.host[175] x 131.946m
attr unit m
par Aloha.host[175] y 198.798m
attr unit m
par Aloha.host[175] txrate 1000Bps
attr unit Bps
par Aloha.host[176] typename "\"Host\""
par Aloha.host[176] arrrate 0.9
par Aloha.host[176] packet_size 1B
attr unit B
par Aloha.host[176] x 143.09m
attr unit m
par Aloha.host[176] y 129.097m
attr unit m
par Aloha.host[176] txrate 1000Bps
attr unit Bps
par Aloha.host[177] typename "\"Host\""
par Aloha.host[177] arrrate 0.9
par Aloha.host[177] packet_size 1B
attr unit B
par Aloha.host[177] x 13.2201m
attr unit m
par Aloha.host[177] y 5.40605m
attr unit m
par Aloha.host[177] txrate 1000Bps
attr unit Bps
par Aloha.host[178] typename "\"Host\""
par Aloha.host[178] arrrate 0.9
par Aloha.host[178] packet_size 1B
attr unit B
par Aloha.host[178] x 155.023m
attr unit m
par Aloha.host[178] y 138.101m
attr unit m
par Aloha.host[178] txrate 1000Bps
attr unit Bps
par Aloha.host[179] typename "\"Host\""
par Aloha.host[179] arrrate 0.9
par Aloha.host[179] packet_size 1B
attr unit B
par Aloha.host[179] x 177.726m
attr unit m
par Aloha.host[179] y 12.6503m
attr unit m
par Aloha.host[179] txrate 1000Bps
attr unit Bps
par Aloha.host[180] typename "\"Host\""
par Aloha.host[180] arrrate 0.9
par Aloha.host[180] packet_size 1B
attr unit B
par Aloha.host[180] x 126.445m
attr unit m
par Aloha.host[180] y 77.322m
attr unit m
par Aloha.host[180] txrate 1000Bps
attr unit Bps
par Aloha.host[181] typename "\"Host\""
par Aloha.host[181] arrrate 0.9
par Aloha.host[181] packet_size 1B
attr unit B
par Aloha.host[181] x 140.671m
attr unit m
par Aloha.host[181] y 41.7799m
attr unit m
par Aloha.host[181] txrate 1000Bps
attr unit Bps
par Aloha.host[182] typename "\"Host\""
par Aloha.host[182] arrrate 0.9
par Aloha.host[182] packet_size 1B
attr unit B
par Aloha.host[182] x 172.689m
attr unit m
par Aloha.host[182] y 174.752m
attr unit m
par Aloha.host[182] txrate 1000Bps
attr unit Bps
par Aloha.host[183] typename "\"Host\""
par Aloha.host[183] arrrate 0.9
par Aloha.host[183] packet_size 1B
attr unit B
par Aloha.host[183] x 189.745m
attr unit m
par Aloha.host[183] y 136.848m
attr unit m
par Aloha.host[183] txrate 1000Bps
attr unit Bps
par Aloha.host[184] typename "\"Host\""
par Aloha.host[184] arrrate 0.9
par Aloha.host[184] packet_size 1B
attr unit B
par Aloha.host[184] x 70.3753m
attr unit m
par Aloha.host[184] y 176.915m
attr unit m
par Aloha.host[184] txrate 1000Bps
attr unit Bps
par Aloha.host[185] typename "\"Host\""
par Aloha.host[185] arrrate 0.9
par Aloha.host[185] packet_size 1B
attr unit B
par Aloha.host[185] x 11.8404m
attr unit m
par Aloha.host[185] y 146.858m
attr unit m
par Aloha.host[185] txrate 1000Bps
attr unit Bps
par Aloha.host[186] typename "\"Host\""
par Aloha.host[186] arrrate 0.9
par Aloha.host[186] packet_size 1B
attr unit B
par Aloha.host[186] x 62.191m
attr unit m
par Aloha.host[186] y 176.274m
attr unit m
par Aloha.host[186] txrate 1000Bps
attr unit Bps
par Aloha.host[187] typename "\"Host\""
par Aloha.host[187] arrrate 0.9
par Aloha.host[187] packet_size 1B
attr unit B
par Aloha.host[187] x 34.1702m
attr unit m
par Aloha.host[187] y 148.732m
attr unit m
par Aloha.host[187] txrate 1000Bps
attr unit Bps
par Aloha.host[188] typename "\"Host\""
par Aloha.host[188] arrrate 0.9
par Aloha.host[188] packet_size 1B
attr unit B
par Aloha.host[188] x 74.8097m
attr unit m
par Aloha.host[188] y 8.31457m
attr unit m
par Aloha.host[188] txrate 1000Bps
attr unit Bps
par Aloha.host[189] typename "\"Host\""
par Aloha.host[189] arrrate 0.9
par Aloha.host[189] packet_size 1B
attr unit B
par Aloha.host[189] x 100.794m
attr unit m
par Aloha.host[189] y 176.765m
attr unit m
par Aloha.host[189] txrate 1000Bps
attr unit Bps
par Aloha.host[190] typename "\"Host\""
par Aloha.host[190] arrrate 0.9
par Aloha.host[190] packet_size 1B
attr unit B
par Aloha.host[190] x 158.098m
attr unit m
par Aloha.host[190] y 44.4216m
attr unit m
par Aloha.host[190] txrate 1000Bps
attr unit Bps
par Aloha.host[191] typename "\"Host\""
par Aloha.host[191] arrrate 0.9
par Aloha.host[191] packet_size 1B
attr unit B
par Aloha.host[191] x 190.496m
attr unit m
par Aloha.host[191] y 118.593m
attr unit m
par Aloha.host[191] txrate 1000Bps
attr unit Bps
par Aloha.host[192] typename "\"Host\""
par Aloha.host[192] arrrate 0.9
par Aloha.host[192] packet_size 1B
attr unit B
par Aloha.host[192] x 57.9642m
attr unit m
par Aloha.host[192] y 175.992m
attr unit m
par Aloha.host[192] txrate 1000Bps
attr unit Bps
par Aloha.host[193] typename "\"Host\""
par Aloha.host[193] arrrate 0.9
par Aloha.host[193] packet_size 1B
attr unit B
par Aloha.host[193] x 190.403m
attr unit m
par Aloha.host[193] y 155.074m
attr unit m
par Aloha.host[193] txrate 1000Bps
attr unit Bps
par Aloha.host[194] typename "\"Host\""
par Aloha.host[194] arrrate 0.9
par Aloha.host[194] packet_size 1B
attr unit B
par Aloha.host[194] x 36.8089m
attr unit m
par Aloha.host[194] y 20.7231m
attr unit m
par Aloha.host[194] txrate 1000Bps
attr unit Bps
par Aloha.host[195] typename "\"Host\""
par Aloha.host[195] arrrate 0.9
par Aloha.host[195] packet_size 1B
attr unit B
par Aloha.host[195] x 88.0123m
attr unit m
par Aloha.host[195] y 6.79303m
attr unit m
par Aloha.host[195] txrate 1000Bps
attr unit Bps
par Aloha.host[196] typename "\"Host\""
par Aloha.host[196] arrrate 0.9
par Aloha.host[196] packet_size 1B
attr unit B
par Aloha.host[196] x 36.4999m
attr unit m
par Aloha.host[196] y 97.8753m
attr unit m
par Aloha.host[196] txrate 1000Bps
attr unit Bps
par Aloha.host[197] typename "\"Host\""
par Aloha.host[197] arrrate 0.9
par Aloha.host[197] packet_size 1B
attr unit B
par Aloha.host[197] x 52.1302m
attr unit m
par Aloha.host[197] y 127.614m
attr unit m
par Aloha.host[197] txrate 1000Bps
attr unit Bps
par Aloha.host[198] typename "\"Host\""
par Aloha.host[198] arrrate 0.9
par Aloha.host[198] packet_size 1B
attr unit B
par Aloha.host[198] x 3.44138m
attr unit m
par Aloha.host[198] y 145.45m
attr unit m
par Aloha.host[198] txrate 1000Bps
attr unit Bps
par Aloha.host[199] typename "\"Host\""
par Aloha.host[199] arrrate 0.9
par Aloha.host[199] packet_size 1B
attr unit B
par Aloha.host[199] x 49.2559m
attr unit m
par Aloha.host[199] y 115.552m
attr unit m
par Aloha.host[199] txrate 1000Bps
attr unit Bps
par Aloha.host[200] typename "\"Host\""
par Aloha.host[200] arrrate 0.9
par Aloha.host[200] packet_size 1B
attr unit B
par Aloha.host[200] x 77.3024m
attr unit m
par Aloha.host[200] y 187.547m
attr unit m
par Aloha.host[200] txrate 1000Bps
attr unit Bps
par Aloha.host[201] typename "\"Host\""
par Aloha.host[201] arrrate 0.9
par Aloha.host[201] packet_size 1B
attr unit B
par Aloha.host[201] x 99.4336m
attr unit m
par Aloha.host[201] y 62.6928m
attr unit m
par Aloha.host[201] txrate 1000Bps
attr unit Bps
par Aloha.host[202] typename "\"Host\""
par Aloha.host[202] arrrate 0.9
par Aloha.host[202] packet_size 1B
attr unit B
par Aloha.host[202] x 60.7083m
attr unit m
par Aloha.host[202] y 14.2487m
attr unit m
par Aloha.host[202] txrate 1000Bps
attr unit Bps
par Aloha.host[203] typename "\"Host\""
par Aloha.host[203] arrrate 0.9
par Aloha.host[203] packet_size 1B
attr unit B
par Aloha.host[203] x 2.60821m
attr unit m
par Aloha.host[203] y 24.3868m
attr unit m
par Aloha.host[203] txrate 1000Bps
attr unit Bps
par Aloha.host[204] typename "\"Host\""
par Aloha.host[204] arrrate 0.9
par Aloha.host[204] packet_size 1B
attr unit B
par Aloha.host[204] x 175.37m
attr unit m
par Aloha.host[204] y 197.576m
attr unit m
par Aloha.host[204] txrate 1000Bps
attr unit Bps
par Aloha.host[205] typename "\"Host\""
par Aloha.host[205] arrrate 0.9
par Aloha.host[205] packet_size 1B
attr unit B
par Aloha.host[205] x 47.219m
attr unit m
par Aloha.host[205] y 86.599m
attr unit m
par Aloha.host[205] txrate 1000Bps
attr unit Bps
par Aloha.host[206] typename "\"Host\""
par Aloha.host[206] arrrate 0.9
par Aloha.host[206] packet_size 1B
attr unit B
par Aloha.host[206] x 43.7803m
attr unit m
par Aloha.host[206] y 141.143m
attr unit m
par Aloha.host[206] txrate 1000Bps
attr unit Bps
par Aloha.host[207] typename "\"Host\""
par Aloha.host[207] arrrate 0.9
par Aloha.host[207] packet_size 1B
attr unit B
par Aloha.host[207] x 0.833039m
attr unit m
par Aloha.host[207] y 103.503m
attr unit m
par Aloha.host[207] txrate 1000Bps
attr unit Bps
par Aloha.host[208] typename "\"Host\""
par Aloha.host[208] arrrate 0.9
par Aloha.host[208] packet_size 1B
attr unit B
par Aloha.host[208] x 52.0062m
attr unit m
par Aloha.host[208] y 76.457m
attr unit m
par Aloha.host[208] txrate 1000Bps
attr unit Bps
par Aloha.host[209] typename "\"Host\""
par Aloha.host[209] arrrate 0.9
par Aloha.host[209] packet_size 1B
attr unit B
par Aloha.host[209] x 54.9985m
attr unit m
par Aloha.host[209] y 86.3816m
attr unit m
par Aloha.host[209] txrate 1000Bps
attr unit Bps
par Aloha.host[210] typename "\"Host\""
par Aloha.host[210] arrrate 0.9
par Aloha.host[210] packet_size 1B
attr unit B
par Aloha.host[210] x 114.684m
attr unit m
par Aloha.host[210] y 66.6335m
attr unit m
par Aloha.host[210] txrate 1000Bps
attr unit Bps
par Aloha.host[211] typename "\"Host\""
par Aloha.host[211] arrrate 0.9
par Aloha.host[211] packet_size 1B
attr unit B
par Aloha.host[211] x 104.081m
attr unit m
par Aloha.host[211] y 109.313m
attr unit m
par Aloha.host[211] txrate 1000Bps
attr unit Bps
par Aloha.host[212] typename "\"Host\""
par Aloha.host[212] arrrate 0.9
par Aloha.host[212] packet_size 1B
attr unit B
par Aloha.host[212] x 159.846m
attr unit m
par Aloha.host[212] y 195.15m
attr unit m
par Aloha.host[212] txrate 1000Bps
attr unit Bps
par Aloha.host[213] typename "\"Host\""
par Aloha.host[213] arrrate 0.9
par Aloha.host[213] packet_size 1B
attr unit B
par Aloha.host[213] x 155.669m
attr unit m
par Aloha.host[213] y 167.335m
attr unit m
par Aloha.host[213] txrate 1000Bps
attr unit Bps
par Aloha.host[214] typename "\"Host\""
par Aloha.host[214] arrrate 0.9
par Aloha.host[214] packet_size 1B
attr unit B
par Aloha.host[214] x 186.016m
attr unit m
par Aloha.host[214] y 147.108m
attr unit m
par Aloha.host[214] txrate 1000Bps
attr unit Bps
par Aloha.host[215] typename "\"Host\""
par Aloha.host[215] arrrate 0.9
par Aloha.host[215] packet_size 1B
attr unit B
par Aloha.host[215] x 105.142m
attr unit m
par Aloha.host[215] y 39.7939m
attr unit m
par Aloha.host[215] txrate 1000Bps
attr unit Bps
par Aloha.host[216] typename "\"Host\""
par Aloha.host[216] arrrate 0.9
par Aloha.host[216] packet_size 1B
attr unit B
par Aloha.host[216] x 186.991m
attr unit m
par Aloha.host[216] y 28.0574m
attr unit m
par Aloha.host[216] txrate 1000Bps
attr unit Bps
par Aloha.host[217] typename "\"Host\""
par Aloha.host[217] arrrate 0.9
par Aloha.host[217] packet_size 1B
attr unit B
par Aloha.host[217] x 163.273m
attr unit m
par Aloha.host[217] y 61.7514m
attr unit m
par Aloha.host[217] txrate 1000Bps
attr unit Bps
par Aloha.host[218] typename "\"Host\""
par Aloha.host[218] arrrate 0.9
par Aloha.host[218] packet_size 1B
attr unit B
par Aloha.host[218] x 37.83m
attr unit m
par Aloha.host[218] y 117.925m
attr unit m
par Aloha.host[218] txrate 1000Bps
attr unit Bps
par Aloha.host[219] typename "\"Host\""
par Aloha.host[219] arrrate 0.9
par Aloha.host[219] packet_size 1B
attr unit B
par Aloha.host[219] x 139.499m
attr unit m
par Aloha.host[219] y 89.2228m
attr unit m
par Aloha.host[219] txrate 1000Bps
attr unit Bps
par Aloha.host[220] typename "\"Host\""
par Aloha.host[220] arrrate 0.9
par Aloha.host[220] packet_size 1B
attr unit B
par Aloha.host[220] x 182.994m
attr unit m
par Aloha.host[220] y 118.931m
attr unit m
par Aloha.host[220] txrate 1000Bps
attr unit Bps
par Aloha.host[221] typename "\"Host\""
par Aloha.host[221] arrrate 0.9
par Aloha.host[221] packet_size 1B
attr unit B
par Aloha.host[221] x 180.61m
attr unit m
par Aloha.host[221] y 90.1938m
attr unit m
par Aloha.host[221] txrate 1000Bps
attr unit Bps
par Aloha.host[222] typename "\"Host\""
par Aloha.host[222] arrrate 0.9
par Aloha.host[222] packet_size 1B
attr unit B
par Aloha.host[222] x 172.34m
attr unit m
par Aloha.host[222] y 35.8786m
attr unit m
par Aloha.host[222] txrate 1000Bps
attr unit Bps
par Aloha.host[223] typename "\"Host\""
par Aloha.host[223] arrrate 0.9
par Aloha.host[223] packet_size 1B
attr unit B
par Aloha.host[223] x 129.527m
attr unit m
par Aloha.host[223] y 125.911m
attr unit m
par Aloha.host[223] txrate 1000Bps
attr unit Bps
par Aloha.host[224] typename "\"Host\""
par Aloha.host[224] arrrate 0.9
par Aloha.host[224] packet_size 1B
attr unit B
par Aloha.host[224] x 192.009m
attr unit m
par Aloha.host[224] y 196.957m
attr unit m
par Aloha.host[224] txrate 1000Bps
attr unit Bps
par Aloha.host[225] typename "\"Host\""
par Aloha.host[225] arrrate 0.9
par Aloha.host[225] packet_size 1B
attr unit B
par Aloha.host[225] x 50.0034m
attr unit m
par Aloha.host[225] y 128.563m
attr unit m
par Aloha.host[225] txrate 1000Bps
attr unit Bps
par Aloha.host[226] typename "\"Host\""
par Aloha.host[226] arrrate 0.9
par Aloha.host[226] packet_size 1B
attr unit B
par Aloha.host[226] x 139.475m
attr unit m
par Aloha.host[226] y 84.0481m
attr unit m
par Aloha.host[226] txrate 1000Bps
attr unit Bps
par Aloha.host[227] typename "\"Host\""
par Aloha.host[227] arrrate 0.9
par Aloha.host[227] packet_size 1B
attr unit B
par Aloha.host[227] x 24.7264m
attr unit m
par Aloha.host[227] y 146.26m
attr unit m
par Aloha.host[227] txrate 1000Bps
attr unit Bps
par Aloha.host[228] typename "\"Host\""
par Aloha.host[228] arrrate 0.9
par Aloha.host[228] packet_size 1B
attr unit B
par Aloha.host[228] x 132.554m
attr unit m
par Aloha.host[228] y 68.4279m
attr unit m
par Aloha.host[228] txrate 1000Bps
attr unit Bps
par Aloha.host[229] typename "\"Host\""
par Aloha.host[229] arrrate 0.9
par Aloha.host[229] packet_size 1B
attr unit B
par Aloha.host[229] x 141.928m
attr unit m
par Aloha.host[229] y 145.355m
attr unit m
par Aloha.host[229] txrate 1000Bps
attr unit Bps
par Aloha.host[230] typename "\"Host\""
par Aloha.host[230] arrrate 0.9
par Aloha.host[230] packet_size 1B
attr unit B
par Aloha.host[230] x 134.397m
attr unit m
par Aloha.host[230] y 54.6751m
attr unit m
par Aloha.host[230] txrate 1000Bps
attr unit Bps
par Aloha.host[231] typename "\"Host\""
par Aloha.host[231] arrrate 0.9
par Aloha.host[231] packet_size 1B
attr unit B
par Aloha.host[231] x 99.6301m
attr unit m
par Aloha.host[231] y 0.944746m
attr unit m
par Aloha.host[231] txrate 1000Bps
attr unit Bps
par Aloha.host[232] typename "\"Host\""
par Aloha.host[232] arrrate 0.9
par Aloha.host[232] packet_size 1B
attr unit B
par Aloha.host[232] x 82.2802m
attr unit m
par Aloha.host[232] y 152.362m
attr unit m
par Aloha.host[232] txrate 1000Bps
attr unit Bps
par Aloha.host[233] typename "\"Host\""
par Aloha.host[233] arrrate 0.9
par Aloha.host[233] packet_size 1B
attr unit B
par Aloha.host[233] x 173.336m
attr unit m
par Aloha.host[233] y 80.337m
attr unit m
par Aloha.host[233] txrate 1000Bps
attr unit Bps
par Aloha.host[234] typename "\"Host\""
par Aloha.host[234] arrrate 0.9
par Aloha.host[234] packet_size 1B
attr unit B
par Aloha.host[234] x 93.9497m
attr unit m
par Aloha.host[234] y 119.361m
attr unit m
par Aloha.host[234] txrate 1000Bps
attr unit Bps
par Aloha.host[235] typename "\"Host\""
par Aloha.host[235] arrrate 0.9
par Aloha.host[235] packet_size 1B
attr unit B
par Aloha.host[235] x 63.5644m
attr unit m
par Aloha.host[235] y 57.0819m
attr unit m
par Aloha.host[235] txrate 1000Bps
attr unit Bps
par Aloha.host[236] typename "\"Host\""
par Aloha.host[236] arrrate 0.9
par Aloha.host[236] packet_size 1B
attr unit B
par Aloha.host[236] x 9.42743m
attr unit m
par Aloha.host[236] y 172.618m
attr unit m
par Aloha.host[236] txrate 1000Bps
attr unit Bps
par Aloha.host[237] typename "\"Host\""
par Aloha.host[237] arrrate 0.9
par Aloha.host[237] packet_size 1B
attr unit B
par Aloha.host[237] x 131.825m
attr unit m
par Aloha.host[237] y 25.6419m
attr unit m
par Aloha.host[237] txrate 1000Bps
attr unit Bps
par Aloha.host[238] typename "\"Host\""
par Aloha.host[238] arrrate 0.9
par Aloha.host[238] packet_size 1B
attr unit B
par Aloha.host[238] x 151.114m
attr unit m
par Aloha.host[238] y 3.6555m
attr unit m
par Aloha.host[238] txrate 1000Bps
attr unit Bps
par Aloha.host[239] typename "\"Host\""
par Aloha.host[239] arrrate 0.9
par Aloha.host[239] packet_size 1B
attr unit B
par Aloha.host[239] x 100.775m
attr unit m
par Aloha.host[239] y 184.518m
attr unit m
par Aloha.host[239] txrate 1000Bps
attr unit Bps
par Aloha.host[240] typename "\"Host\""
par Aloha.host[240] arrrate 0.9
par Aloha.host[240] packet_size 1B
attr unit B
par Aloha.host[240] x 145.893m
attr unit m
par Aloha.host[240] y 81.4907m
attr unit m
par Aloha.host[240] txrate 1000Bps
attr unit Bps
par Aloha.host[241] typename "\"Host\""
par Aloha.host[241] arrrate 0.9
par Aloha.host[241] packet_size 1B
attr unit B
par Aloha.host[241] x 127.938m
attr unit m
par Aloha.host[241] y 163.668m
attr unit m
par Aloha.host[241] txrate 1000Bps
attr unit Bps
par Aloha.host[242] typename "\"Host\""
par Aloha.host[242] arrrate 0.9
par Aloha.host[242] packet_size 1B
attr unit B
par Aloha.host[242] x 100.437m
attr unit m
par Aloha.host[242] y 193.976m
attr unit m
par Aloha.host[242] txrate 1000Bps
attr unit Bps
par Aloha.host[243] typename "\"Host\""
par Aloha.host[243] arrrate 0.9
par Aloha.host[243] packet_size 1B
attr unit B
par Aloha.host[243] x 37.6585m
attr unit m
par Aloha.host[243] y 176.508m
attr unit m
par Aloha.host[243] txrate 1000Bps
attr unit Bps
par Aloha.host[244] typename "\"Host\""
par Aloha.host[244] arrrate 0.9
par Aloha.host[244] packet_size 1B
attr unit B
par Aloha.host[244] x 71.4423m
attr unit m
par Aloha.host[244] y 107.991m
attr unit m
par Aloha.host[244] txrate 1000Bps
attr unit Bps
par Aloha.host[245] typename "\"Host\""
par Aloha.host[245] arrrate 0.9
par Aloha.host[245] packet_size 1B
attr unit B
par Aloha.host[245] x 145.944m
attr unit m
par Aloha.host[245] y 178.015m
attr unit m
par Aloha.host[245] txrate 1000Bps
attr unit Bps
par Aloha.host[246] typename "\"Host\""
par Aloha.host[246] arrrate 0.9
par Aloha.host[246] packet_size 1B
attr unit B
par Aloha.host[246] x 150.113m
attr unit m
par Aloha.host[246] y 142.494m
attr unit m
par Aloha.host[246] txrate 1000Bps
attr unit Bps
par Aloha.host[247] typename "\"Host\""
par Aloha.host[247] arrrate 0.9
par Aloha.host[247] packet_size 1B
attr unit B
par Aloha.host[247] x 10.6255m
attr unit m
par Aloha.host[247] y 54.5116m
attr unit m
par Aloha.host[247] txrate 1000Bps
attr unit Bps
par Aloha.host[248] typename "\"Host\""
par Aloha.host[248] arrrate 0.9
par Aloha.host[248] packet_size 1B
attr unit B
par Aloha.host[248] x 85.6272m
attr unit m
par Aloha.host[248] y 132.309m
attr unit m
par Aloha.host[248] txrate 1000Bps
attr unit Bps
par Aloha.host[249] typename "\"Host\""
par Aloha.host[249] arrrate 0.9
par Aloha.host[249] packet_size 1B
attr unit B
par Aloha.host[249] x 121.814m
attr unit m
par Aloha.host[249] y 106.491m
attr unit m
par Aloha.host[249] txrate 1000Bps
attr unit Bps
par Aloha.host[250] typename "\"Host\""
par Aloha.host[250] arrrate 0.9
par Aloha.host[250] packet_size 1B
attr unit B
par Aloha.host[250] x 146.456m
attr unit m
par Aloha.host[250] y 196.029m
attr unit m
par Aloha.host[250] txrate 1000Bps
attr unit Bps
par Aloha.host[251] typename "\"Host\""
par Aloha.host[251] arrrate 0.9
par Aloha.host[251] packet_size 1B
attr unit B
par Aloha.host[251] x 79.8335m
attr unit m
par Aloha.host[251] y 133.605m
attr unit m
par Aloha.host[251] txrate 1000Bps
attr unit Bps
par Aloha.host[252] typename "\"Host\""
par Aloha.host[252] arrrate 0.9
par Aloha.host[252] packet_size 1B
attr unit B
par Aloha.host[252] x 108.885m
attr unit m
par Aloha.host[252] y 134.492m
attr unit m
par Aloha.host[252] txrate 1000Bps
attr unit Bps
par Aloha.host[253] typename "\"Host\""
par Aloha.host[253] arrrate 0.9
par Aloha.host[253] packet_size 1B
attr unit B
par Aloha.host[253] x 75.7089m
attr unit m
par Aloha.host[253] y 112.221m
attr unit m
par Aloha.host[253] txrate 1000Bps
attr unit Bps
par Aloha.host[254] typename "\"Host\""
par Aloha.host[254] arrrate 0.9
par Aloha.host[254] packet_size 1B
attr unit B
par Aloha.host[254] x 68.0163m
attr unit m
par Aloha.host[254] y 39.2373m
attr unit m
par Aloha.host[254] txrate 1000Bps
attr unit Bps
par Aloha.host[255] typename "\"Host\""
par Aloha.host[255] arrrate 0.9
par Aloha.host[255] packet_size 1B
attr unit B
par Aloha.host[255] x 65.2447m
attr unit m
par Aloha.host[255] y 33.8345m
attr unit m
par Aloha.host[255] txrate 1000Bps
attr unit Bps
par Aloha.host[256] typename "\"Host\""
par Aloha.host[256] arrrate 0.9
par Aloha.host[256] packet_size 1B
attr unit B
par Aloha.host[256] x 164.125m
attr unit m
par Aloha.host[256] y 194.948m
attr unit m
par Aloha.host[256] txrate 1000Bps
attr unit Bps
par Aloha.host[257] typename "\"Host\""
par Aloha.host[257] arrrate 0.9
par Aloha.host[257] packet_size 1B
attr unit B
par Aloha.host[257] x 15.4732m
attr unit m
par Aloha.host[257] y 41.7043m
attr unit m
par Aloha.host[257] txrate 1000Bps
attr unit Bps
par Aloha.host[258] typename "\"Host\""
par Aloha.host[258] arrrate 0.9
par Aloha.host[258] packet_size 1B
attr unit B
par Aloha.host[258] x 7.27319m
attr unit m
par Aloha.host[258] y 105.875m
attr unit m
par Aloha.host[258] txrate 1000Bps
attr unit Bps
par Aloha.host[259] typename "\"Host\""
par Aloha.host[259] arrrate 0.9
par Aloha.host[259] packet_size 1B
attr unit B
par Aloha.host[259] x 137.014m
attr unit m
par Aloha.host[259] y 8.20585m
attr unit m
par Aloha.host[259] txrate 1000Bps
attr unit Bps
par Aloha.host[260] typename "\"Host\""
par Aloha.host[260] arrrate 0.9
par Aloha.host[260] packet_size 1B
attr unit B
par Aloha.host[260] x 72.5988m
attr unit m
par Aloha.host[260] y 186.146m
attr unit m
par Aloha.host[260] txrate 1000Bps
attr unit Bps
par Aloha.host[261] typename "\"Host\""
par Aloha.host[261] arrrate 0.9
par Aloha.host[261] packet_size 1B
attr unit B
par Aloha.host[261] x 188.074m
attr unit m
par Aloha.host[261] y 94.2336m
attr unit m
par Aloha.host[261] txrate 1000Bps
attr unit Bps
par Aloha.host[262] typename "\"Host\""
par Aloha.host[262] arrrate 0.9
par Aloha.host[262] packet_size 1B
attr unit B
par Aloha.host[262] x 34.1036m
attr unit m
par Aloha.host[262] y 23.7223m
attr unit m
par Aloha.host[262] txrate 1000Bps
attr unit Bps
par Aloha.host[263] typename "\"Host\""
par Aloha.host[263] arrrate 0.9
par Aloha.host[263] packet_size 1B
attr unit B
par Aloha.host[263] x 82.3332m
attr unit m
par Aloha.host[263] y 116.63m
attr unit m
par Aloha.host[263] txrate 1000Bps
attr unit Bps
par Aloha.host[264] typename "\"Host\""
par Aloha.host[264] arrrate 0.9
par Aloha.host[264] packet_size 1B
attr unit B
par Aloha.host[264] x 79.7137m
attr unit m
par Aloha.host[264] y 173.236m
attr unit m
par Aloha.host[264] txrate 1000Bps
attr unit Bps
par Aloha.host[265] typename "\"Host\""
par Aloha.host[265] arrrate 0.9
par Aloha.host[265] packet_size 1B
attr unit B
par Aloha.host[265] x 102.115m
attr unit m
par Aloha.host[265] y 67.3206m
attr unit m
par Aloha.host[265] txrate 1000Bps
attr unit Bps
par Aloha.host[266] typename "\"Host\""
par Aloha.host[266] arrrate 0.9
par Aloha.host[266] packet_size 1B
attr unit B
par Aloha.host[266] x 31.3819m
attr unit m
par Aloha.host[266] y 19.7193m
attr unit m
par Aloha.host[266] txrate 1000Bps
attr unit Bps
par Aloha.host[267] typename "\"Host\""
par Aloha.host[267] arrrate 0.9
par Aloha.host[267] packet_size 1B
attr unit B
par Aloha.host[267] x 196.533m
attr unit m
par Aloha.host[267] y 65.491m
attr unit m
par Aloha.host[267] txrate 1000Bps
attr unit Bps
par Aloha.host[268] typename "\"Host\""
par Aloha.host[268] arrrate 0.9
par Aloha.host[268] packet_size 1B
attr unit B
par Aloha.host[268] x 126.551m
attr unit m
par Aloha.host[268] y 186.597m
attr unit m
par Aloha.host[268] txrate 1000Bps
attr unit Bps
par Aloha.host[269] typename "\"Host\""
par Aloha.host[269] arrrate 0.9
par Aloha.host[269] packet_size 1B
attr unit B
par Aloha.host[269] x 185.934m
attr unit m
par Aloha.host[269] y 74.1958m
attr unit m
par Aloha.host[269] txrate 1000Bps
attr unit Bps
par Aloha.host[270] typename "\"Host\""
par Aloha.host[270] arrrate 0.9
par Aloha.host[270] packet_size 1B
attr unit B
par Aloha.host[270] x 127.941m
attr unit m
par Aloha.host[270] y 67.1414m
attr unit m
par Aloha.host[270] txrate 1000Bps
attr unit Bps
par Aloha.host[271] typename "\"Host\""
par Aloha.host[271] arrrate 0.9
par Aloha.host[271] packet_size 1B
attr unit B
par Aloha.host[271] x 127.18m
attr unit m
par Aloha.host[271] y 62.6976m
attr unit m
par Aloha.host[271] txrate 1000Bps
attr unit Bps
par Aloha.host[272] typename "\"Host\""
par Aloha.host[272] arrrate 0.9
par Aloha.host[272] packet_size 1B
attr unit B
par Aloha.host[272] x 120.2m
attr unit m
par Aloha.host[272] y 199.067m
attr unit m
par Aloha.host[272] txrate 1000Bps
attr unit Bps
par Aloha.host[273] typename "\"Host\""
par Aloha.host[273] arrrate 0.9
par Aloha.host[273] packet_size 1B
attr unit B
par Aloha.host[273] x 49.2431m
attr unit m
par Aloha.host[273] y 28.7015m
attr unit m
par Aloha.host[273] txrate 1000Bps
attr unit Bps
par Aloha.host[274] typename "\"Host\""
par Aloha.host[274] arrrate 0.9
par Aloha.host[274] packet_size 1B
attr unit B
par Aloha.host[274] x 57.336m
attr unit m
par Aloha.host[274] y 84.3933m
attr unit m
par Aloha.host[274] txrate 1000Bps
attr unit Bps
par Aloha.host[275] typename "\"Host\""
par Aloha.host[275] arrrate 0.9
par Aloha.host[275] packet_size 1B
attr unit B
par Aloha.host[275] x 33.3665m
attr unit m
par Aloha.host[275] y 99.7814m
attr unit m
par Aloha.host[275] txrate 1000Bps
attr unit Bps
par Aloha.host[276] typename "\"Host\""
par Aloha.host[276] arrrate 0.9
par Aloha.host[276] packet_size 1B
attr unit B
par Aloha.host[276] x 141.504m
attr unit m
par Aloha.host[276] y 45.1634m
attr unit m
par Aloha.host[276] txrate 1000Bps
attr unit Bps
par Aloha.host[277] typename "\"Host\""
par Aloha.host[277] arrrate 0.9
par Aloha.host[277] packet_size 1B
attr unit B
par Aloha.host[277] x 171.228m
attr unit m
par Aloha.host[277] y 96.7793m
attr unit m
par Aloha.host[277] txrate 1000Bps
attr unit Bps
par Aloha.host[278] typename "\"Host\""
par Aloha.host[278] arrrate 0.9
par Aloha.host[278] packet_size 1B
attr unit B
par Aloha.host[278] x 43.8892m
attr unit m
par Aloha.host[278] y 131.134m
attr unit m
par Aloha.host[278] txrate 1000Bps
attr unit Bps
par Aloha.host[279] typename "\"Host\""
par Aloha.host[279] arrrate 0.9
par Aloha.host[279] packet_size 1B
attr unit B
par Aloha.host[279] x 12.4167m
attr unit m
par Aloha.host[279] y 14.5499m
attr unit m
par Aloha.host[279] txrate 1000Bps
attr unit Bps
par Aloha.host[280] typename "\"Host\""
par Aloha.host[280] arrrate 0.9
par Aloha.host[280] packet_size 1B
attr unit B
par Aloha.host[280] x 80.6917m
attr unit m
par Aloha.host[280] y 135.643m
attr unit m
par Aloha.host[280] txrate 1000Bps
attr unit Bps
par Aloha.host[281] typename "\"Host\""
par Aloha.host[281] arrrate 0.9
par Aloha.host[281] packet_size 1B
attr unit B
par Aloha.host[281] x 193.142m
attr unit m
par Aloha.host[281] y 103.093m
attr unit m
par Aloha.host[281] txrate 1000Bps
attr unit Bps
par Aloha.host[282] typename "\"Host\""
par Aloha.host[282] arrrate 0.9
par Aloha.host[282] packet_size 1B
attr unit B
par Aloha.host[282] x 28.9256m
attr unit m
par Aloha.host[282] y 125.879m
attr unit m
par Aloha.host[282] txrate 1000Bps
attr unit Bps
par Aloha.host[283] typename "\"Host\""
par Aloha.host[283] arrrate 0.9
par Aloha.host[283] packet_size 1B
attr unit B
par Aloha.host[283] x 111.095m
attr unit m
par Aloha.host[283] y 143.471m
attr unit m
par Aloha.host[283] txrate 1000Bps
attr unit Bps
par Aloha.host[284] typename "\"Host\""
par Aloha.host[284] arrrate 0.9
par Aloha.host[284] packet_size 1B
attr unit B
par Aloha.host[284] x 155.319m
attr unit m
par Aloha.host[284] y 95.1465m
attr unit m
par Aloha.host[284] txrate 1000Bps
attr unit Bps
par Aloha.host[285] typename "\"Host\""
par Aloha.host[285] arrrate 0.9
par Aloha.host[285] packet_size 1B
attr unit B
par Aloha.host[285] x 38.9819m
attr unit m
par Aloha.host[285] y 133.24m
attr unit m
par Aloha.host[285] txrate 1000Bps
attr unit Bps
par Aloha.host[286] typename "\"Host\""
par Aloha.host[286] arrrate 0.9
par Aloha.host[286] packet_size 1B
attr unit B
par Aloha.host[286] x 69.7481m
attr unit m
par Aloha.host[286] y 77.3332m
attr unit m
par Aloha.host[286] txrate 1000Bps
attr unit Bps
par Aloha.host[287] typename "\"Host\""
par Aloha.host[287] arrrate 0.9
par Aloha.host[287] packet_size 1B
attr unit B
par Aloha.host[287] x 44.5347m
attr unit m
par Aloha.host[287] y 121.386m
attr unit m
par Aloha.host[287] txrate 1000Bps
attr unit Bps
par Aloha.host[288] typename "\"Host\""
par Aloha.host[288] arrrate 0.9
par Aloha.host[288] packet_size 1B
attr unit B
par Aloha.host[288] x 93.3857m
attr unit m
par Aloha.host[288] y 39.5374m
attr unit m
par Aloha.host[288] txrate 1000Bps
attr unit Bps
par Aloha.host[289] typename "\"Host\""
par Aloha.host[289] arrrate 0.9
par Aloha.host[289] packet_size 1B
attr unit B
par Aloha.host[289] x 187.028m
attr unit m
par Aloha.host[289] y 163.826m
attr unit m
par Aloha.host[289] txrate 1000Bps
attr unit Bps
par Aloha.host[290] typename "\"Host\""
par Aloha.host[290] arrrate 0.9
par Aloha.host[290] packet_size 1B
attr unit B
par Aloha.host[290] x 126.244m
attr unit m
par Aloha.host[290] y 87.4971m
attr unit m
par Aloha.host[290] txrate 1000Bps
attr unit Bps
par Aloha.host[291] typename "\"Host\""
par Aloha.host[291] arrrate 0.9
par Aloha.host[291] packet_size 1B
attr unit B
par Aloha.host[291] x 22.1069m
attr unit m
par Aloha.host[291] y 47.0704m
attr unit m
par Aloha.host[291] txrate 1000Bps
attr unit Bps
par Aloha.host[292] typename "\"Host\""
par Aloha.host[292] arrrate 0.9
par Aloha.host[292] packet_size 1B
attr unit B
par Aloha.host[292] x 68.5545m
attr unit m
par Aloha.host[292] y 194.336m
attr unit m
par Aloha.host[292] txrate 1000Bps
attr unit Bps
par Aloha.host[293] typename "\"Host\""
par Aloha.host[293] arrrate 0.9
par Aloha.host[293] packet_size 1B
attr unit B
par Aloha.host[293] x 140.751m
attr unit m
par Aloha.host[293] y 177.323m
attr unit m
par Aloha.host[293] txrate 1000Bps
attr unit Bps
par Aloha.host[294] typename "\"Host\""
par Aloha.host[294] arrrate 0.9
par Aloha.host[294] packet_size 1B
attr unit B
par Aloha.host[294] x 198.906m
attr unit m
par Aloha.host[294] y 194.47m
attr unit m
par Aloha.host[294] txrate 1000Bps
attr unit Bps
par Aloha.host[295] typename "\"Host\""
par Aloha.host[295] arrrate 0.9
par Aloha.host[295] packet_size 1B
attr unit B
par Aloha.host[295] x 72.4003m
attr unit m
par Aloha.host[295] y 75.8223m
attr unit m
par Aloha.host[295] txrate 1000Bps
attr unit Bps
par Aloha.host[296] typename "\"Host\""
par Aloha.host[296] arrrate 0.9
par Aloha.host[296] packet_size 1B
attr unit B
par Aloha.host[296] x 103.791m
attr unit m
par Aloha.host[296] y 168.588m
attr unit m
par Aloha.host[296] txrate 1000Bps
attr unit Bps
par Aloha.host[297] typename "\"Host\""
par Aloha.host[297] arrrate 0.9
par Aloha.host[297] packet_size 1B
attr unit B
par Aloha.host[297] x 44.7661m
attr unit m
par Aloha.host[297] y 192.876m
attr unit m
par Aloha.host[297] txrate 1000Bps
attr unit Bps
par Aloha.host[298] typename "\"Host\""
par Aloha.host[298] arrrate 0.9
par Aloha.host[298] packet_size 1B
attr unit B
par Aloha.host[298] x 69.494m
attr unit m
par Aloha.host[298] y 41.5046m
attr unit m
par Aloha.host[298] txrate 1000Bps
attr unit Bps
par Aloha.host[299] typename "\"Host\""
par Aloha.host[299] arrrate 0.9
par Aloha.host[299] packet_size 1B
attr unit B
par Aloha.host[299] x 26.5838m
attr unit m
par Aloha.host[299] y 29.6136m
attr unit m
par Aloha.host[299] txrate 1000Bps
attr unit Bps
par Aloha.host[300] typename "\"Host\""
par Aloha.host[300] arrrate 0.9
par Aloha.host[300] packet_size 1B
attr unit B
par Aloha.host[300] x 36.8864m
attr unit m
par Aloha.host[300] y 195.895m
attr unit m
par Aloha.host[300] txrate 1000Bps
attr unit Bps
par Aloha.host[301] typename "\"Host\""
par Aloha.host[301] arrrate 0.9
par Aloha.host[301] packet_size 1B
attr unit B
par Aloha.host[301] x 59.7823m
attr unit m
par Aloha.host[301] y 82.1251m
attr unit m
par Aloha.host[301] txrate 1000Bps
attr unit Bps
par Aloha.host[302] typename "\"Host\""
par Aloha.host[302] arrrate 0.9
par Aloha.host[302] packet_size 1B
attr unit B
par Aloha.host[302] x 9.71631m
attr unit m
par Aloha.host[302] y 163.555m
attr unit m
par Aloha.host[302] txrate 1000Bps
attr unit Bps
par Aloha.host[303] typename "\"Host\""
par Aloha.host[303] arrrate 0.9
par Aloha.host[303] packet_size 1B
attr unit B
par Aloha.host[303] x 55.5598m
attr unit m
par Aloha.host[303] y 100.833m
attr unit m
par Aloha.host[303] txrate 1000Bps
attr unit Bps
par Aloha.host[304] typename "\"Host\""
par Aloha.host[304] arrrate 0.9
par Aloha.host[304] packet_size 1B
attr unit B
par Aloha.host[304] x 16.6219m
attr unit m
par Aloha.host[304] y 173.332m
attr unit m
par Aloha.host[304] txrate 1000Bps
attr unit Bps
par Aloha.host[305] typename "\"Host\""
par Aloha.host[305] arrrate 0.9
par Aloha.host[305] packet_size 1B
attr unit B
par Aloha.host[305] x 5.82936m
attr unit m
par Aloha.host[305] y 155.455m
attr unit m
par Aloha.host[305] txrate 1000Bps
attr unit Bps
par Aloha.host[306] typename "\"Host\""
par Aloha.host[306] arrrate 0.9
par Aloha.host[306] packet_size 1B
attr unit B
par Aloha.host[306] x 192.925m
attr unit m
par Aloha.host[306] y 64.9334m
attr unit m
par Aloha.host[306] txrate 1000Bps
attr unit Bps
par Aloha.host[307] typename "\"Host\""
par Aloha.host[307] arrrate 0.9
par Aloha.host[307] packet_size 1B
attr unit B
par Aloha.host[307] x 65.2794m
attr unit m
par Aloha.host[307] y 7.55215m
attr unit m
par Aloha.host[307] txrate 1000Bps
attr unit Bps
par Aloha.host[308] typename "\"Host\""
par Aloha.host[308] arrrate 0.9
par Aloha.host[308] packet_size 1B
attr unit B
par Aloha.host[308] x 137.701m
attr unit m
par Aloha.host[308] y 143.484m
attr unit m
par Aloha.host[308] txrate 1000Bps
attr unit Bps
par Aloha.host[309] typename "\"Host\""
par Aloha.host[309] arrrate 0.9
par Aloha.host[309] packet_size 1B
attr unit B
par Aloha.host[309] x 55.9431m
attr unit m
par Aloha.host[309] y 65.722m
attr unit m
par Aloha.host[309] txrate 1000Bps
attr unit Bps
par Aloha.host[310] typename "\"Host\""
par Aloha.host[310] arrrate 0.9
par Aloha.host[310] packet_size 1B
attr unit B
par Aloha.host[310] x 88.0559m
attr unit m
par Aloha.host[310] y 23.9757m
attr unit m
par Aloha.host[310] txrate 1000Bps
attr unit Bps
par Aloha.host[311] typename "\"Host\""
par Aloha.host[311] arrrate 0.9
par Aloha.host[311] packet_size 1B
attr unit B
par Aloha.host[311] x 163.857m
attr unit m
par Aloha.host[311] y 22.7959m
attr unit m
par Aloha.host[311] txrate 1000Bps
attr unit Bps
par Aloha.host[312] typename "\"Host\""
par Aloha.host[312] arrrate 0.9
par Aloha.host[312] packet_size 1B
attr unit B
par Aloha.host[312] x 158.693m
attr unit m
par Aloha.host[312] y 91.3146m
attr unit m
par Aloha.host[312] txrate 1000Bps
attr unit Bps
par Aloha.host[313] typename "\"Host\""
par Aloha.host[313] arrrate 0.9
par Aloha.host[313] packet_size 1B
attr unit B
par Aloha.host[313] x 105.206m
attr unit m
par Aloha.host[313] y 28.1276m
attr unit m
par Aloha.host[313] txrate 1000Bps
attr unit Bps
par Aloha.host[314] typename "\"Host\""
par Aloha.host[314] arrrate 0.9
par Aloha.host[314] packet_size 1B
attr unit B
par Aloha.host[314] x 70.7663m
attr unit m
par Aloha.host[314] y 198.99m
attr unit m
par Aloha.host[314] txrate 1000Bps
attr unit Bps
par Aloha.host[315] typename "\"Host\""
[...]
par Aloha.host[922] packet_size 1B
attr unit B
par Aloha.host[922] x 192.957m
attr unit m
par Aloha.host[922] y 22.8485m
attr unit m
par Aloha.host[922] txrate 1000Bps
attr unit Bps
par Aloha.host[923] typename "\"Host\""
par Aloha.host[923] arrrate 0.9
par Aloha.host[923] packet_size 1B
attr unit B
par Aloha.host[923] x 111.686m
attr unit m
par Aloha.host[923] y 152.177m
attr unit m
par Aloha.host[923] txrate 1000Bps
attr unit Bps
par Aloha.host[924] typename "\"Host\""
par Aloha.host[924] arrrate 0.9
par Aloha.host[924] packet_size 1B
attr unit B
par Aloha.host[924] x 164.609m
attr unit m
par Aloha.host[924] y 172.101m
attr unit m
par Aloha.host[924] txrate 1000Bps
attr unit Bps
par Aloha.host[925] typename "\"Host\""
par Aloha.host[925] arrrate 0.9
par Aloha.host[925] packet_size 1B
attr unit B
par Aloha.host[925] x 85.4514m
attr unit m
par Aloha.host[925] y 90.039m
attr unit m
par Aloha.host[925] txrate 1000Bps
attr unit Bps
par Aloha.host[926] typename "\"Host\""
par Aloha.host[926] arrrate 0.9
par Aloha.host[926] packet_size 1B
attr unit B
par Aloha.host[926] x 111.729m
attr unit m
par Aloha.host[926] y 179.937m
attr unit m
par Aloha.host[926] txrate 1000Bps
attr unit Bps
par Aloha.host[927] typename "\"Host\""
par Aloha.host[927] arrrate 0.9
par Aloha.host[927] packet_size 1B
attr unit B
par Aloha.host[927] x 49.9979m
attr unit m
par Aloha.host[927] y 176.209m
attr unit m
par Aloha.host[927] txrate 1000Bps
attr unit Bps
par Aloha.host[928] typename "\"Host\""
par Aloha.host[928] arrrate 0.9
par Aloha.host[928] packet_size 1B
attr unit B
par Aloha.host[928] x 113.627m
attr unit m
par Aloha.host[928] y 45.0282m
attr unit m
par Aloha.host[928] txrate 1000Bps
attr unit Bps
par Aloha.host[929] typename "\"Host\""
par Aloha.host[929] arrrate 0.9
par Aloha.host[929] packet_size 1B
attr unit B
par Aloha.host[929] x 168.106m
attr unit m
par Aloha.host[929] y 2.01249m
attr unit m
par Aloha.host[929] txrate 1000Bps
attr unit Bps
par Aloha.host[930] typename "\"Host\""
par Aloha.host[930] arrrate 0.9
par Aloha.host[930] packet_size 1B
attr unit B
par Aloha.host[930] x 119.904m
attr unit m
par Aloha.host[930] y 3.23279m
attr unit m
par Aloha.host[930] txrate 1000Bps
attr unit Bps
par Aloha.host[931] typename "\"Host\""
par Aloha.host[931] arrrate 0.9
par Aloha.host[931] packet_size 1B
attr unit B
par Aloha.host[931] x 32.0406m
attr unit m
par Aloha.host[931] y 160.309m
attr unit m
par Aloha.host[931] txrate 1000Bps
attr unit Bps
par Aloha.host[932] typename "\"Host\""
par Aloha.host[932] arrrate 0.9
par Aloha.host[932] packet_size 1B
attr unit B
par Aloha.host[932] x 145.766m
attr unit m
par Aloha.host[932] y 150.889m
attr unit m
par Aloha.host[932] txrate 1000Bps
attr unit Bps
par Aloha.host[933] typename "\"Host\""
par Aloha.host[933] arrrate 0.9
par Aloha.host[933] packet_size 1B
attr unit B
par Aloha.host[933] x 33.8508m
attr unit m
par Aloha.host[933] y 168.145m
attr unit m
par Aloha.host[933] txrate 1000Bps
attr unit Bps
par Aloha.host[934] typename "\"Host\""
par Aloha.host[934] arrrate 0.9
par Aloha.host[934] packet_size 1B
attr unit B
par Aloha.host[934] x 11.9643m
attr unit m
par Aloha.host[934] y 170.807m
attr unit m
par Aloha.host[934] txrate 1000Bps
attr unit Bps
par Aloha.host[935] typename "\"Host\""
par Aloha.host[935] arrrate 0.9
par Aloha.host[935] packet_size 1B
attr unit B
par Aloha.host[935] x 14.8036m
attr unit m
par Aloha.host[935] y 93.4136m
attr unit m
par Aloha.host[935] txrate 1000Bps
attr unit Bps
par Aloha.host[936] typename "\"Host\""
par Aloha.host[936] arrrate 0.9
par Aloha.host[936] packet_size 1B
attr unit B
par Aloha.host[936] x 76.9687m
attr unit m
par Aloha.host[936] y 70.588m
attr unit m
par Aloha.host[936] txrate 1000Bps
attr unit Bps
par Aloha.host[937] typename "\"Host\""
par Aloha.host[937] arrrate 0.9
par Aloha.host[937] packet_size 1B
attr unit B
par Aloha.host[937] x 1.89538m
attr unit m
par Aloha.host[937] y 160.136m
attr unit m
par Aloha.host[937] txrate 1000Bps
attr unit Bps
par Aloha.host[938] typename "\"Host\""
par Aloha.host[938] arrrate 0.9
par Aloha.host[938] packet_size 1B
attr unit B
par Aloha.host[938] x 5.61227m
attr unit m
par Aloha.host[938] y 31.2257m
attr unit m
par Aloha.host[938] txrate 1000Bps
attr unit Bps
par Aloha.host[939] typename "\"Host\""
par Aloha.host[939] arrrate 0.9
par Aloha.host[939] packet_size 1B
attr unit B
par Aloha.host[939] x 38.238m
attr unit m
par Aloha.host[939] y 31.6102m
attr unit m
par Aloha.host[939] txrate 1000Bps
attr unit Bps
par Aloha.host[940] typename "\"Host\""
par Aloha.host[940] arrrate 0.9
par Aloha.host[940] packet_size 1B
attr unit B
par Aloha.host[940] x 194.861m
attr unit m
par Aloha.host[940] y 148.207m
attr unit m
par Aloha.host[940] txrate 1000Bps
attr unit Bps
par Aloha.host[941] typename "\"Host\""
par Aloha.host[941] arrrate 0.9
par Aloha.host[941] packet_size 1B
attr unit B
par Aloha.host[941] x 163.999m
attr unit m
par Aloha.host[941] y 180.421m
attr unit m
par Aloha.host[941] txrate 1000Bps
attr unit Bps
par Aloha.host[942] typename "\"Host\""
par Aloha.host[942] arrrate 0.9
par Aloha.host[942] packet_size 1B
attr unit B
par Aloha.host[942] x 123.092m
attr unit m
par Aloha.host[942] y 27.5946m
attr unit m
par Aloha.host[942] txrate 1000Bps
attr unit Bps
par Aloha.host[943] typename "\"Host\""
par Aloha.host[943] arrrate 0.9
par Aloha.host[943] packet_size 1B
attr unit B
par Aloha.host[943] x 117.535m
attr unit m
par Aloha.host[943] y 194.23m
attr unit m
par Aloha.host[943] txrate 1000Bps
attr unit Bps
par Aloha.host[944] typename "\"Host\""
par Aloha.host[944] arrrate 0.9
par Aloha.host[944] packet_size 1B
attr unit B
par Aloha.host[944] x 61.5355m
attr unit m
par Aloha.host[944] y 97.2373m
attr unit m
par Aloha.host[944] txrate 1000Bps
attr unit Bps
par Aloha.host[945] typename "\"Host\""
par Aloha.host[945] arrrate 0.9
par Aloha.host[945] packet_size 1B
attr unit B
par Aloha.host[945] x 22.2235m
attr unit m
par Aloha.host[945] y 8.72886m
attr unit m
par Aloha.host[945] txrate 1000Bps
attr unit Bps
par Aloha.host[946] typename "\"Host\""
par Aloha.host[946] arrrate 0.9
par Aloha.host[946] packet_size 1B
attr unit B
par Aloha.host[946] x 164.937m
attr unit m
par Aloha.host[946] y 125.419m
attr unit m
par Aloha.host[946] txrate 1000Bps
attr unit Bps
par Aloha.host[947] typename "\"Host\""
par Aloha.host[947] arrrate 0.9
par Aloha.host[947] packet_size 1B
attr unit B
par Aloha.host[947] x 180.728m
attr unit m
par Aloha.host[947] y 161.29m
attr unit m
par Aloha.host[947] txrate 1000Bps
attr unit Bps
par Aloha.host[948] typename "\"Host\""
par Aloha.host[948] arrrate 0.9
par Aloha.host[948] packet_size 1B
attr unit B
par Aloha.host[948] x 166.731m
attr unit m
par Aloha.host[948] y 66.3124m
attr unit m
par Aloha.host[948] txrate 1000Bps
attr unit Bps
par Aloha.host[949] typename "\"Host\""
par Aloha.host[949] arrrate 0.9
par Aloha.host[949] packet_size 1B
attr unit B
par Aloha.host[949] x 41.9692m
attr unit m
par Aloha.host[949] y 59.6373m
attr unit m
par Aloha.host[949] txrate 1000Bps
attr unit Bps
par Aloha.host[950] typename "\"Host\""
par Aloha.host[950] arrrate 0.9
par Aloha.host[950] packet_size 1B
attr unit B
par Aloha.host[950] x 26.5755m
attr unit m
par Aloha.host[950] y 83.1639m
attr unit m
par Aloha.host[950] txrate 1000Bps
attr unit Bps
par Aloha.host[951] typename "\"Host\""
par Aloha.host[951] arrrate 0.9
par Aloha.host[951] packet_size 1B
attr unit B
par Aloha.host[951] x 179.92m
attr unit m
par Aloha.host[951] y 101.568m
attr unit m
par Aloha.host[951] txrate 1000Bps
attr unit Bps
par Aloha.host[952] typename "\"Host\""
par Aloha.host[952] arrrate 0.9
par Aloha.host[952] packet_size 1B
attr unit B
par Aloha.host[952] x 36.2634m
attr unit m
par Aloha.host[952] y 197.821m
attr unit m
par Aloha.host[952] txrate 1000Bps
attr unit Bps
par Aloha.host[953] typename "\"Host\""
par Aloha.host[953] arrrate 0.9
par Aloha.host[953] packet_size 1B
attr unit B
par Aloha.host[953] x 181.2m
attr unit m
par Aloha.host[953] y 196.332m
attr unit m
par Aloha.host[953] txrate 1000Bps
attr unit Bps
par Aloha.host[954] typename "\"Host\""
par Aloha.host[954] arrrate 0.9
par Aloha.host[954] packet_size 1B
attr unit B
par Aloha.host[954] x 186.906m
attr unit m
par Aloha.host[954] y 41.5069m
attr unit m
par Aloha.host[954] txrate 1000Bps
attr unit Bps
par Aloha.host[955] typename "\"Host\""
par Aloha.host[955] arrrate 0.9
par Aloha.host[955] packet_size 1B
attr unit B
par Aloha.host[955] x 165.088m
attr unit m
par Aloha.host[955] y 12.9623m
attr unit m
par Aloha.host[955] txrate 1000Bps
attr unit Bps
par Aloha.host[956] typename "\"Host\""
par Aloha.host[956] arrrate 0.9
par Aloha.host[956] packet_size 1B
attr unit B
par Aloha.host[956] x 163.015m
attr unit m
par Aloha.host[956] y 148.42m
attr unit m
par Aloha.host[956] txrate 1000Bps
attr unit Bps
par Aloha.host[957] typename "\"Host\""
par Aloha.host[957] arrrate 0.9
par Aloha.host[957] packet_size 1B
attr unit B
par Aloha.host[957] x 14.9401m
attr unit m
par Aloha.host[957] y 70.3547m
attr unit m
par Aloha.host[957] txrate 1000Bps
attr unit Bps
par Aloha.host[958] typename "\"Host\""
par Aloha.host[958] arrrate 0.9
par Aloha.host[958] packet_size 1B
attr unit B
par Aloha.host[958] x 65.6675m
attr unit m
par Aloha.host[958] y 45.3126m
attr unit m
par Aloha.host[958] txrate 1000Bps
attr unit Bps
par Aloha.host[959] typename "\"Host\""
par Aloha.host[959] arrrate 0.9
par Aloha.host[959] packet_size 1B
attr unit B
par Aloha.host[959] x 122.725m
attr unit m
par Aloha.host[959] y 78.5546m
attr unit m
par Aloha.host[959] txrate 1000Bps
attr unit Bps
par Aloha.host[960] typename "\"Host\""
par Aloha.host[960] arrrate 0.9
par Aloha.host[960] packet_size 1B
attr unit B
par Aloha.host[960] x 124.869m
attr unit m
par Aloha.host[960] y 29.4897m
attr unit m
par Aloha.host[960] txrate 1000Bps
attr unit Bps
par Aloha.host[961] typename "\"Host\""
par Aloha.host[961] arrrate 0.9
par Aloha.host[961] packet_size 1B
attr unit B
par Aloha.host[961] x 115.243m
attr unit m
par Aloha.host[961] y 18.3074m
attr unit m
par Aloha.host[961] txrate 1000Bps
attr unit Bps
par Aloha.host[962] typename "\"Host\""
par Aloha.host[962] arrrate 0.9
par Aloha.host[962] packet_size 1B
attr unit B
par Aloha.host[962] x 107.513m
attr unit m
par Aloha.host[962] y 167.807m
attr unit m
par Aloha.host[962] txrate 1000Bps
attr unit Bps
par Aloha.host[963] typename "\"Host\""
par Aloha.host[963] arrrate 0.9
par Aloha.host[963] packet_size 1B
attr unit B
par Aloha.host[963] x 65.25m
attr unit m
par Aloha.host[963] y 158.359m
attr unit m
par Aloha.host[963] txrate 1000Bps
attr unit Bps
par Aloha.host[964] typename "\"Host\""
par Aloha.host[964] arrrate 0.9
par Aloha.host[964] packet_size 1B
attr unit B
par Aloha.host[964] x 69.2796m
attr unit m
par Aloha.host[964] y 170.119m
attr unit m
par Aloha.host[964] txrate 1000Bps
attr unit Bps
par Aloha.host[965] typename "\"Host\""
par Aloha.host[965] arrrate 0.9
par Aloha.host[965] packet_size 1B
attr unit B
par Aloha.host[965] x 14.7584m
attr unit m
par Aloha.host[965] y 8.37687m
attr unit m
par Aloha.host[965] txrate 1000Bps
attr unit Bps
par Aloha.host[966] typename "\"Host\""
par Aloha.host[966] arrrate 0.9
par Aloha.host[966] packet_size 1B
attr unit B
par Aloha.host[966] x 182.239m
attr unit m
par Aloha.host[966] y 44.6207m
attr unit m
par Aloha.host[966] txrate 1000Bps
attr unit Bps
par Aloha.host[967] typename "\"Host\""
par Aloha.host[967] arrrate 0.9
par Aloha.host[967] packet_size 1B
attr unit B
par Aloha.host[967] x 165.546m
attr unit m
par Aloha.host[967] y 185.798m
attr unit m
par Aloha.host[967] txrate 1000Bps
attr unit Bps
par Aloha.host[968] typename "\"Host\""
par Aloha.host[968] arrrate 0.9
par Aloha.host[968] packet_size 1B
attr unit B
par Aloha.host[968] x 8.18108m
attr unit m
par Aloha.host[968] y 107.079m
attr unit m
par Aloha.host[968] txrate 1000Bps
attr unit Bps
par Aloha.host[969] typename "\"Host\""
par Aloha.host[969] arrrate 0.9
par Aloha.host[969] packet_size 1B
attr unit B
par Aloha.host[969] x 179.782m
attr unit m
par Aloha.host[969] y 103.38m
attr unit m
par Aloha.host[969] txrate 1000Bps
attr unit Bps
par Aloha.host[970] typename "\"Host\""
par Aloha.host[970] arrrate 0.9
par Aloha.host[970] packet_size 1B
attr unit B
par Aloha.host[970] x 154.148m
attr unit m
par Aloha.host[970] y 166.126m
attr unit m
par Aloha.host[970] txrate 1000Bps
attr unit Bps
par Aloha.host[971] typename "\"Host\""
par Aloha.host[971] arrrate 0.9
par Aloha.host[971] packet_size 1B
attr unit B
par Aloha.host[971] x 197.062m
attr unit m
par Aloha.host[971] y 28.5843m
attr unit m
par Aloha.host[971] txrate 1000Bps
attr unit Bps
par Aloha.host[972] typename "\"Host\""
par Aloha.host[972] arrrate 0.9
par Aloha.host[972] packet_size 1B
attr unit B
par Aloha.host[972] x 158.753m
attr unit m
par Aloha.host[972] y 138.286m
attr unit m
par Aloha.host[972] txrate 1000Bps
attr unit Bps
par Aloha.host[973] typename "\"Host\""
par Aloha.host[973] arrrate 0.9
par Aloha.host[973] packet_size 1B
attr unit B
par Aloha.host[973] x 59.2391m
attr unit m
par Aloha.host[973] y 111.021m
attr unit m
par Aloha.host[973] txrate 1000Bps
attr unit Bps
par Aloha.host[974] typename "\"Host\""
par Aloha.host[974] arrrate 0.9
par Aloha.host[974] packet_size 1B
attr unit B
par Aloha.host[974] x 113.372m
attr unit m
par Aloha.host[974] y 66.2197m
attr unit m
par Aloha.host[974] txrate 1000Bps
attr unit Bps
par Aloha.host[975] typename "\"Host\""
par Aloha.host[975] arrrate 0.9
par Aloha.host[975] packet_size 1B
attr unit B
par Aloha.host[975] x 187.436m
attr unit m
par Aloha.host[975] y 146.849m
attr unit m
par Aloha.host[975] txrate 1000Bps
attr unit Bps
par Aloha.host[976] typename "\"Host\""
par Aloha.host[976] arrrate 0.9
par Aloha.host[976] packet_size 1B
attr unit B
par Aloha.host[976] x 131.344m
attr unit m
par Aloha.host[976] y 38.9507m
attr unit m
par Aloha.host[976] txrate 1000Bps
attr unit Bps
par Aloha.host[977] typename "\"Host\""
par Aloha.host[977] arrrate 0.9
par Aloha.host[977] packet_size 1B
attr unit B
par Aloha.host[977] x 106.319m
attr unit m
par Aloha.host[977] y 52.2696m
attr unit m
par Aloha.host[977] txrate 1000Bps
attr unit Bps
par Aloha.host[978] typename "\"Host\""
par Aloha.host[978] arrrate 0.9
par Aloha.host[978] packet_size 1B
attr unit B
par Aloha.host[978] x 57.743m
attr unit m
par Aloha.host[978] y 30.235m
attr unit m
par Aloha.host[978] txrate 1000Bps
attr unit Bps
par Aloha.host[979] typename "\"Host\""
par Aloha.host[979] arrrate 0.9
par Aloha.host[979] packet_size 1B
attr unit B
par Aloha.host[979] x 32.5572m
attr unit m
par Aloha.host[979] y 189.514m
attr unit m
par Aloha.host[979] txrate 1000Bps
attr unit Bps
par Aloha.host[980] typename "\"Host\""
par Aloha.host[980] arrrate 0.9
par Aloha.host[980] packet_size 1B
attr unit B
par Aloha.host[980] x 91.5531m
attr unit m
par Aloha.host[980] y 98.0704m
attr unit m
par Aloha.host[980] txrate 1000Bps
attr unit Bps
par Aloha.host[981] typename "\"Host\""
par Aloha.host[981] arrrate 0.9
par Aloha.host[981] packet_size 1B
attr unit B
par Aloha.host[981] x 73.7824m
attr unit m
par Aloha.host[981] y 169.226m
attr unit m
par Aloha.host[981] txrate 1000Bps
attr unit Bps
par Aloha.host[982] typename "\"Host\""
par Aloha.host[982] arrrate 0.9
par Aloha.host[982] packet_size 1B
attr unit B
par Aloha.host[982] x 34.909m
attr unit m
par Aloha.host[982] y 47.6594m
attr unit m
par Aloha.host[982] txrate 1000Bps
attr unit Bps
par Aloha.host[983] typename "\"Host\""
par Aloha.host[983] arrrate 0.9
par Aloha.host[983] packet_size 1B
attr unit B
par Aloha.host[983] x 178.829m
attr unit m
par Aloha.host[983] y 13.0493m
attr unit m
par Aloha.host[983] txrate 1000Bps
attr unit Bps
par Aloha.host[984] typename "\"Host\""
par Aloha.host[984] arrrate 0.9
par Aloha.host[984] packet_size 1B
attr unit B
par Aloha.host[984] x 50.6653m
attr unit m
par Aloha.host[984] y 157.694m
attr unit m
par Aloha.host[984] txrate 1000Bps
attr unit Bps
par Aloha.host[985] typename "\"Host\""
par Aloha.host[985] arrrate 0.9
par Aloha.host[985] packet_size 1B
attr unit B
par Aloha.host[985] x 96.3831m
attr unit m
par Aloha.host[985] y 81.5539m
attr unit m
par Aloha.host[985] txrate 1000Bps
attr unit Bps
par Aloha.host[986] typename "\"Host\""
par Aloha.host[986] arrrate 0.9
par Aloha.host[986] packet_size 1B
attr unit B
par Aloha.host[986] x 90.2491m
attr unit m
par Aloha.host[986] y 184.925m
attr unit m
par Aloha.host[986] txrate 1000Bps
attr unit Bps
par Aloha.host[987] typename "\"Host\""
par Aloha.host[987] arrrate 0.9
par Aloha.host[987] packet_size 1B
attr unit B
par Aloha.host[987] x 179.656m
attr unit m
par Aloha.host[987] y 72.4657m
attr unit m
par Aloha.host[987] txrate 1000Bps
attr unit Bps
par Aloha.host[988] typename "\"Host\""
par Aloha.host[988] arrrate 0.9
par Aloha.host[988] packet_size 1B
attr unit B
par Aloha.host[988] x 36.4635m
attr unit m
par Aloha.host[988] y 132.256m
attr unit m
par Aloha.host[988] txrate 1000Bps
attr unit Bps
par Aloha.host[989] typename "\"Host\""
par Aloha.host[989] arrrate 0.9
par Aloha.host[989] packet_size 1B
attr unit B
par Aloha.host[989] x 75.5269m
attr unit m
par Aloha.host[989] y 168.507m
attr unit m
par Aloha.host[989] txrate 1000Bps
attr unit Bps
par Aloha.host[990] typename "\"Host\""
par Aloha.host[990] arrrate 0.9
par Aloha.host[990] packet_size 1B
attr unit B
par Aloha.host[990] x 19.1594m
attr unit m
par Aloha.host[990] y 24.3386m
attr unit m
par Aloha.host[990] txrate 1000Bps
attr unit Bps
par Aloha.host[991] typename "\"Host\""
par Aloha.host[991] arrrate 0.9
par Aloha.host[991] packet_size 1B
attr unit B
par Aloha.host[991] x 137.06m
attr unit m
par Aloha.host[991] y 119.356m
attr unit m
par Aloha.host[991] txrate 1000Bps
attr unit Bps
par Aloha.host[992] typename "\"Host\""
par Aloha.host[992] arrrate 0.9
par Aloha.host[992] packet_size 1B
attr unit B
par Aloha.host[992] x 52.4295m
attr unit m
par Aloha.host[992] y 183.676m
attr unit m
par Aloha.host[992] txrate 1000Bps
attr unit Bps
par Aloha.host[993] typename "\"Host\""
par Aloha.host[993] arrrate 0.9
par Aloha.host[993] packet_size 1B
attr unit B
par Aloha.host[993] x 135.991m
attr unit m
par Aloha.host[993] y 85.8115m
attr unit m
par Aloha.host[993] txrate 1000Bps
attr unit Bps
par Aloha.host[994] typename "\"Host\""
par Aloha.host[994] arrrate 0.9
par Aloha.host[994] packet_size 1B
attr unit B
par Aloha.host[994] x 187.066m
attr unit m
par Aloha.host[994] y 187.091m
attr unit m
par Aloha.host[994] txrate 1000Bps
attr unit Bps
par Aloha.host[995] typename "\"Host\""
par Aloha.host[995] arrrate 0.9
par Aloha.host[995] packet_size 1B
attr unit B
par Aloha.host[995] x 21.1328m
attr unit m
par Aloha.host[995] y 161.171m
attr unit m
par Aloha.host[995] txrate 1000Bps
attr unit Bps
par Aloha.host[996] typename "\"Host\""
par Aloha.host[996] arrrate 0.9
par Aloha.host[996] packet_size 1B
attr unit B
par Aloha.host[996] x 10.4781m
attr unit m
par Aloha.host[996] y 129.79m
attr unit m
par Aloha.host[996] txrate 1000Bps
attr unit Bps
par Aloha.host[997] typename "\"Host\""
par Aloha.host[997] arrrate 0.9
par Aloha.host[997] packet_size 1B
attr unit B
par Aloha.host[997] x 116.42m
attr unit m
par Aloha.host[997] y 39.0887m
attr unit m
par Aloha.host[997] txrate 1000Bps
attr unit Bps
par Aloha.host[998] typename "\"Host\""
par Aloha.host[998] arrrate 0.9
par Aloha.host[998] packet_size 1B
attr unit B
par Aloha.host[998] x 13.8249m
attr unit m
par Aloha.host[998] y 54.0139m
attr unit m
par Aloha.host[998] txrate 1000Bps
attr unit Bps
par Aloha.host[999] typename "\"Host\""
par Aloha.host[999] arrrate 0.9
par Aloha.host[999] packet_size 1B
attr unit B
par Aloha.host[999] x 12.2452m
attr unit m
par Aloha.host[999] y 49.6388m
attr unit m
par Aloha.host[999] txrate 1000Bps
attr unit Bps
par Aloha.server typename "\"Server\""
par Aloha.server x 62.1803m
attr unit m
par Aloha.server y 104.494m
attr unit m
scalar Aloha.server prob_succ 0.1654447996333
scalar Aloha.server uti 14.887342
par Aloha typename "\"Aloha\""
par Aloha numHosts 1000

