version 3
run General-7-20220605-16:54:33-732257
attr configname General
attr datetime 20220605-16:54:33
attr datetimef 20220605-165433
attr experiment General
attr inifile aloha.ini
attr iterationvars $0=0.8
attr iterationvarsd 0.8
attr iterationvarsf 0.8-
attr measurement $0=0.8
attr network Aloha
attr processid 732257
attr repetition 0
attr replication #0
attr resultdir results
attr runnumber 7
attr seedset 7
config network Aloha
config cmdenv-performance-display false
config sim-time-limit 100000s
config **.x "uniform(0m, 200m)"
config **.y "uniform(0m, 200m)"
config *.numHosts 1000
config **.packet_size 1B
config **.txrate 1000Bps
config **.arrrate 0.8

par Aloha.host[0] typename "\"Host\""
par Aloha.host[0] arrrate 0.8
par Aloha.host[0] packet_size 1B
attr unit B
par Aloha.host[0] x 15.2617m
attr unit m
par Aloha.host[0] y 45.4678m
attr unit m
par Aloha.host[0] txrate 1000Bps
attr unit Bps
par Aloha.host[1] typename "\"Host\""
par Aloha.host[1] arrrate 0.8
par Aloha.host[1] packet_size 1B
attr unit B
par Aloha.host[1] x 155.984m
attr unit m
par Aloha.host[1] y 63.7944m
attr unit m
par Aloha.host[1] txrate 1000Bps
attr unit Bps
par Aloha.host[2] typename "\"Host\""
par Aloha.host[2] arrrate 0.8
par Aloha.host[2] packet_size 1B
attr unit B
par Aloha.host[2] x 87.6818m
attr unit m
par Aloha.host[2] y 195.645m
attr unit m
par Aloha.host[2] txrate 1000Bps
attr unit Bps
par Aloha.host[3] typename "\"Host\""
par Aloha.host[3] arrrate 0.8
par Aloha.host[3] packet_size 1B
attr unit B
par Aloha.host[3] x 144.693m
attr unit m
par Aloha.host[3] y 91.117m
attr unit m
par Aloha.host[3] txrate 1000Bps
attr unit Bps
par Aloha.host[4] typename "\"Host\""
par Aloha.host[4] arrrate 0.8
par Aloha.host[4] packet_size 1B
attr unit B
par Aloha.host[4] x 195.598m
attr unit m
par Aloha.host[4] y 61.6026m
attr unit m
par Aloha.host[4] txrate 1000Bps
attr unit Bps
par Aloha.host[5] typename "\"Host\""
par Aloha.host[5] arrrate 0.8
par Aloha.host[5] packet_size 1B
attr unit B
par Aloha.host[5] x 107.699m
attr unit m
par Aloha.host[5] y 52.7742m
attr unit m
par Aloha.host[5] txrate 1000Bps
attr unit Bps
par Aloha.host[6] typename "\"Host\""
par Aloha.host[6] arrrate 0.8
par Aloha.host[6] packet_size 1B
attr unit B
par Aloha.host[6] x 100.224m
attr unit m
par Aloha.host[6] y 17.3487m
attr unit m
par Aloha.host[6] txrate 1000Bps
attr unit Bps
par Aloha.host[7] typename "\"Host\""
par Aloha.host[7] arrrate 0.8
par Aloha.host[7] packet_size 1B
attr unit B
par Aloha.host[7] x 14.4102m
attr unit m
par Aloha.host[7] y 83.8744m
attr unit m
par Aloha.host[7] txrate 1000Bps
attr unit Bps
par Aloha.host[8] typename "\"Host\""
par Aloha.host[8] arrrate 0.8
par Aloha.host[8] packet_size 1B
attr unit B
par Aloha.host[8] x 53.6878m
attr unit m
par Aloha.host[8] y 3.18207m
attr unit m
par Aloha.host[8] txrate 1000Bps
attr unit Bps
par Aloha.host[9] typename "\"Host\""
par Aloha.host[9] arrrate 0.8
par Aloha.host[9] packet_size 1B
attr unit B
par Aloha.host[9] x 99.9765m
attr unit m
par Aloha.host[9] y 105.553m
attr unit m
par Aloha.host[9] txrate 1000Bps
attr unit Bps
par Aloha.host[10] typename "\"Host\""
par Aloha.host[10] arrrate 0.8
par Aloha.host[10] packet_size 1B
attr unit B
par Aloha.host[10] x 135.846m
attr unit m
par Aloha.host[10] y 173.76m
attr unit m
par Aloha.host[10] txrate 1000Bps
attr unit Bps
par Aloha.host[11] typename "\"Host\""
par Aloha.host[11] arrrate 0.8
par Aloha.host[11] packet_size 1B
attr unit B
par Aloha.host[11] x 160.748m
attr unit m
par Aloha.host[11] y 66.1678m
attr unit m
par Aloha.host[11] txrate 1000Bps
attr unit Bps
par Aloha.host[12] typename "\"Host\""
par Aloha.host[12] arrrate 0.8
par Aloha.host[12] packet_size 1B
attr unit B
par Aloha.host[12] x 76.1882m
attr unit m
par Aloha.host[12] y 78.5885m
attr unit m
par Aloha.host[12] txrate 1000Bps
attr unit Bps
par Aloha.host[13] typename "\"Host\""
par Aloha.host[13] arrrate 0.8
par Aloha.host[13] packet_size 1B
attr unit B
par Aloha.host[13] x 13.1873m
attr unit m
par Aloha.host[13] y 134.866m
attr unit m
par Aloha.host[13] txrate 1000Bps
attr unit Bps
par Aloha.host[14] typename "\"Host\""
par Aloha.host[14] arrrate 0.8
par Aloha.host[14] packet_size 1B
attr unit B
par Aloha.host[14] x 57.6291m
attr unit m
par Aloha.host[14] y 134.463m
attr unit m
par Aloha.host[14] txrate 1000Bps
attr unit Bps
par Aloha.host[15] typename "\"Host\""
par Aloha.host[15] arrrate 0.8
par Aloha.host[15] packet_size 1B
attr unit B
par Aloha.host[15] x 181.919m
attr unit m
par Aloha.host[15] y 138.806m
attr unit m
par Aloha.host[15] txrate 1000Bps
attr unit Bps
par Aloha.host[16] typename "\"Host\""
par Aloha.host[16] arrrate 0.8
par Aloha.host[16] packet_size 1B
attr unit B
par Aloha.host[16] x 42.6771m
attr unit m
par Aloha.host[16] y 69.1946m
attr unit m
par Aloha.host[16] txrate 1000Bps
attr unit Bps
par Aloha.host[17] typename "\"Host\""
par Aloha.host[17] arrrate 0.8
par Aloha.host[17] packet_size 1B
attr unit B
par Aloha.host[17] x 90.4248m
attr unit m
par Aloha.host[17] y 185.906m
attr unit m
par Aloha.host[17] txrate 1000Bps
attr unit Bps
par Aloha.host[18] typename "\"Host\""
par Aloha.host[18] arrrate 0.8
par Aloha.host[18] packet_size 1B
attr unit B
par Aloha.host[18] x 186.241m
attr unit m
par Aloha.host[18] y 52.5168m
attr unit m
par Aloha.host[18] txrate 1000Bps
attr unit Bps
par Aloha.host[19] typename "\"Host\""
par Aloha.host[19] arrrate 0.8
par Aloha.host[19] packet_size 1B
attr unit B
par Aloha.host[19] x 4.97985m
attr unit m
par Aloha.host[19] y 150.153m
attr unit m
par Aloha.host[19] txrate 1000Bps
attr unit Bps
par Aloha.host[20] typename "\"Host\""
par Aloha.host[20] arrrate 0.8
par Aloha.host[20] packet_size 1B
attr unit B
par Aloha.host[20] x 120.11m
attr unit m
par Aloha.host[20] y 50.9788m
attr unit m
par Aloha.host[20] txrate 1000Bps
attr unit Bps
par Aloha.host[21] typename "\"Host\""
par Aloha.host[21] arrrate 0.8
par Aloha.host[21] packet_size 1B
attr unit B
par Aloha.host[21] x 190.026m
attr unit m
par Aloha.host[21] y 170.259m
attr unit m
par Aloha.host[21] txrate 1000Bps
attr unit Bps
par Aloha.host[22] typename "\"Host\""
par Aloha.host[22] arrrate 0.8
par Aloha.host[22] packet_size 1B
attr unit B
par Aloha.host[22] x 46.0606m
attr unit m
par Aloha.host[22] y 34.8106m
attr unit m
par Aloha.host[22] txrate 1000Bps
attr unit Bps
par Aloha.host[23] typename "\"Host\""
par Aloha.host[23] arrrate 0.8
par Aloha.host[23] packet_size 1B
attr unit B
par Aloha.host[23] x 109.698m
attr unit m
par Aloha.host[23] y 158.153m
attr unit m
par Aloha.host[23] txrate 1000Bps
attr unit Bps
par Aloha.host[24] typename "\"Host\""
par Aloha.host[24] arrrate 0.8
par Aloha.host[24] packet_size 1B
attr unit B
par Aloha.host[24] x 181.826m
attr unit m
par Aloha.host[24] y 187.526m
attr unit m
par Aloha.host[24] txrate 1000Bps
attr unit Bps
par Aloha.host[25] typename "\"Host\""
par Aloha.host[25] arrrate 0.8
par Aloha.host[25] packet_size 1B
attr unit B
par Aloha.host[25] x 26.6339m
attr unit m
par Aloha.host[25] y 89.7652m
attr unit m
par Aloha.host[25] txrate 1000Bps
attr unit Bps
par Aloha.host[26] typename "\"Host\""
par Aloha.host[26] arrrate 0.8
par Aloha.host[26] packet_size 1B
attr unit B
par Aloha.host[26] x 104.683m
attr unit m
par Aloha.host[26] y 76.9299m
attr unit m
par Aloha.host[26] txrate 1000Bps
attr unit Bps
par Aloha.host[27] typename "\"Host\""
par Aloha.host[27] arrrate 0.8
par Aloha.host[27] packet_size 1B
attr unit B
par Aloha.host[27] x 150.082m
attr unit m
par Aloha.host[27] y 71.495m
attr unit m
par Aloha.host[27] txrate 1000Bps
attr unit Bps
par Aloha.host[28] typename "\"Host\""
par Aloha.host[28] arrrate 0.8
par Aloha.host[28] packet_size 1B
attr unit B
par Aloha.host[28] x 133.803m
attr unit m
par Aloha.host[28] y 38.6711m
attr unit m
par Aloha.host[28] txrate 1000Bps
attr unit Bps
par Aloha.host[29] typename "\"Host\""
par Aloha.host[29] arrrate 0.8
par Aloha.host[29] packet_size 1B
attr unit B
par Aloha.host[29] x 93.5506m
attr unit m
par Aloha.host[29] y 20.0948m
attr unit m
par Aloha.host[29] txrate 1000Bps
attr unit Bps
par Aloha.host[30] typename "\"Host\""
par Aloha.host[30] arrrate 0.8
par Aloha.host[30] packet_size 1B
attr unit B
par Aloha.host[30] x 40.9698m
attr unit m
par Aloha.host[30] y 96.5274m
attr unit m
par Aloha.host[30] txrate 1000Bps
attr unit Bps
par Aloha.host[31] typename "\"Host\""
par Aloha.host[31] arrrate 0.8
par Aloha.host[31] packet_size 1B
attr unit B
par Aloha.host[31] x 98.1532m
attr unit m
par Aloha.host[31] y 122.741m
attr unit m
par Aloha.host[31] txrate 1000Bps
attr unit Bps
par Aloha.host[32] typename "\"Host\""
par Aloha.host[32] arrrate 0.8
par Aloha.host[32] packet_size 1B
attr unit B
par Aloha.host[32] x 74.4769m
attr unit m
par Aloha.host[32] y 190.25m
attr unit m
par Aloha.host[32] txrate 1000Bps
attr unit Bps
par Aloha.host[33] typename "\"Host\""
par Aloha.host[33] arrrate 0.8
par Aloha.host[33] packet_size 1B
attr unit B
par Aloha.host[33] x 95.4802m
attr unit m
par Aloha.host[33] y 69.7513m
attr unit m
par Aloha.host[33] txrate 1000Bps
attr unit Bps
par Aloha.host[34] typename "\"Host\""
par Aloha.host[34] arrrate 0.8
par Aloha.host[34] packet_size 1B
attr unit B
par Aloha.host[34] x 73.1781m
attr unit m
par Aloha.host[34] y 55.3029m
attr unit m
par Aloha.host[34] txrate 1000Bps
attr unit Bps
par Aloha.host[35] typename "\"Host\""
par Aloha.host[35] arrrate 0.8
par Aloha.host[35] packet_size 1B
attr unit B
par Aloha.host[35] x 167.584m
attr unit m
par Aloha.host[35] y 89.3012m
attr unit m
par Aloha.host[35] txrate 1000Bps
attr unit Bps
par Aloha.host[36] typename "\"Host\""
par Aloha.host[36] arrrate 0.8
par Aloha.host[36] packet_size 1B
attr unit B
par Aloha.host[36] x 153.73m
attr unit m
par Aloha.host[36] y 191.583m
attr unit m
par Aloha.host[36] txrate 1000Bps
attr unit Bps
par Aloha.host[37] typename "\"Host\""
par Aloha.host[37] arrrate 0.8
par Aloha.host[37] packet_size 1B
attr unit B
par Aloha.host[37] x 62.7989m
attr unit m
par Aloha.host[37] y 35.9154m
attr unit m
par Aloha.host[37] txrate 1000Bps
attr unit Bps
par Aloha.host[38] typename "\"Host\""
par Aloha.host[38] arrrate 0.8
par Aloha.host[38] packet_size 1B
attr unit B
par Aloha.host[38] x 114.525m
attr unit m
par Aloha.host[38] y 28.5431m
attr unit m
par Aloha.host[38] txrate 1000Bps
attr unit Bps
par Aloha.host[39] typename "\"Host\""
par Aloha.host[39] arrrate 0.8
par Aloha.host[39] packet_size 1B
attr unit B
par Aloha.host[39] x 55.2098m
attr unit m
par Aloha.host[39] y 16.7016m
attr unit m
par Aloha.host[39] txrate 1000Bps
attr unit Bps
par Aloha.host[40] typename "\"Host\""
par Aloha.host[40] arrrate 0.8
par Aloha.host[40] packet_size 1B
attr unit B
par Aloha.host[40] x 90.5686m
attr unit m
par Aloha.host[40] y 109.447m
attr unit m
par Aloha.host[40] txrate 1000Bps
attr unit Bps
par Aloha.host[41] typename "\"Host\""
par Aloha.host[41] arrrate 0.8
par Aloha.host[41] packet_size 1B
attr unit B
par Aloha.host[41] x 70.5957m
attr unit m
par Aloha.host[41] y 62.0418m
attr unit m
par Aloha.host[41] txrate 1000Bps
attr unit Bps
par Aloha.host[42] typename "\"Host\""
par Aloha.host[42] arrrate 0.8
par Aloha.host[42] packet_size 1B
attr unit B
par Aloha.host[42] x 131.48m
attr unit m
par Aloha.host[42] y 56.5439m
attr unit m
par Aloha.host[42] txrate 1000Bps
attr unit Bps
par Aloha.host[43] typename "\"Host\""
par Aloha.host[43] arrrate 0.8
par Aloha.host[43] packet_size 1B
attr unit B
par Aloha.host[43] x 74.0702m
attr unit m
par Aloha.host[43] y 184.199m
attr unit m
par Aloha.host[43] txrate 1000Bps
attr unit Bps
par Aloha.host[44] typename "\"Host\""
par Aloha.host[44] arrrate 0.8
par Aloha.host[44] packet_size 1B
attr unit B
par Aloha.host[44] x 91.8186m
attr unit m
par Aloha.host[44] y 86.6684m
attr unit m
par Aloha.host[44] txrate 1000Bps
attr unit Bps
par Aloha.host[45] typename "\"Host\""
par Aloha.host[45] arrrate 0.8
par Aloha.host[45] packet_size 1B
attr unit B
par Aloha.host[45] x 143.865m
attr unit m
par Aloha.host[45] y 83.7514m
attr unit m
par Aloha.host[45] txrate 1000Bps
attr unit Bps
par Aloha.host[46] typename "\"Host\""
par Aloha.host[46] arrrate 0.8
par Aloha.host[46] packet_size 1B
attr unit B
par Aloha.host[46] x 82.5984m
attr unit m
par Aloha.host[46] y 197.245m
attr unit m
par Aloha.host[46] txrate 1000Bps
attr unit Bps
par Aloha.host[47] typename "\"Host\""
par Aloha.host[47] arrrate 0.8
par Aloha.host[47] packet_size 1B
attr unit B
par Aloha.host[47] x 181.285m
attr unit m
par Aloha.host[47] y 158.714m
attr unit m
par Aloha.host[47] txrate 1000Bps
attr unit Bps
par Aloha.host[48] typename "\"Host\""
par Aloha.host[48] arrrate 0.8
par Aloha.host[48] packet_size 1B
attr unit B
par Aloha.host[48] x 36.0903m
attr unit m
par Aloha.host[48] y 68.661m
attr unit m
par Aloha.host[48] txrate 1000Bps
attr unit Bps
par Aloha.host[49] typename "\"Host\""
par Aloha.host[49] arrrate 0.8
par Aloha.host[49] packet_size 1B
attr unit B
par Aloha.host[49] x 148.224m
attr unit m
par Aloha.host[49] y 60.0678m
attr unit m
par Aloha.host[49] txrate 1000Bps
attr unit Bps
par Aloha.host[50] typename "\"Host\""
par Aloha.host[50] arrrate 0.8
par Aloha.host[50] packet_size 1B
attr unit B
par Aloha.host[50] x 84.4748m
attr unit m
par Aloha.host[50] y 100.791m
attr unit m
par Aloha.host[50] txrate 1000Bps
attr unit Bps
par Aloha.host[51] typename "\"Host\""
par Aloha.host[51] arrrate 0.8
par Aloha.host[51] packet_size 1B
attr unit B
par Aloha.host[51] x 85.2907m
attr unit m
par Aloha.host[51] y 124.651m
attr unit m
par Aloha.host[51] txrate 1000Bps
attr unit Bps
par Aloha.host[52] typename "\"Host\""
par Aloha.host[52] arrrate 0.8
par Aloha.host[52] packet_size 1B
attr unit B
par Aloha.host[52] x 126.876m
attr unit m
par Aloha.host[52] y 131.394m
attr unit m
par Aloha.host[52] txrate 1000Bps
attr unit Bps
par Aloha.host[53] typename "\"Host\""
par Aloha.host[53] arrrate 0.8
par Aloha.host[53] packet_size 1B
attr unit B
par Aloha.host[53] x 104.581m
attr unit m
par Aloha.host[53] y 51.8272m
attr unit m
par Aloha.host[53] txrate 1000Bps
attr unit Bps
par Aloha.host[54] typename "\"Host\""
par Aloha.host[54] arrrate 0.8
par Aloha.host[54] packet_size 1B
attr unit B
par Aloha.host[54] x 82.9772m
attr unit m
par Aloha.host[54] y 81.0398m
attr unit m
par Aloha.host[54] txrate 1000Bps
attr unit Bps
par Aloha.host[55] typename "\"Host\""
par Aloha.host[55] arrrate 0.8
par Aloha.host[55] packet_size 1B
attr unit B
par Aloha.host[55] x 0.285376m
attr unit m
par Aloha.host[55] y 133.452m
attr unit m
par Aloha.host[55] txrate 1000Bps
attr unit Bps
par Aloha.host[56] typename "\"Host\""
par Aloha.host[56] arrrate 0.8
par Aloha.host[56] packet_size 1B
attr unit B
par Aloha.host[56] x 18.4525m
attr unit m
par Aloha.host[56] y 87.9003m
attr unit m
par Aloha.host[56] txrate 1000Bps
attr unit Bps
par Aloha.host[57] typename "\"Host\""
par Aloha.host[57] arrrate 0.8
par Aloha.host[57] packet_size 1B
attr unit B
par Aloha.host[57] x 141.879m
attr unit m
par Aloha.host[57] y 156.347m
attr unit m
par Aloha.host[57] txrate 1000Bps
attr unit Bps
par Aloha.host[58] typename "\"Host\""
par Aloha.host[58] arrrate 0.8
par Aloha.host[58] packet_size 1B
attr unit B
par Aloha.host[58] x 104.869m
attr unit m
par Aloha.host[58] y 136.926m
attr unit m
par Aloha.host[58] txrate 1000Bps
attr unit Bps
par Aloha.host[59] typename "\"Host\""
par Aloha.host[59] arrrate 0.8
par Aloha.host[59] packet_size 1B
attr unit B
par Aloha.host[59] x 139.232m
attr unit m
par Aloha.host[59] y 147.335m
attr unit m
par Aloha.host[59] txrate 1000Bps
attr unit Bps
par Aloha.host[60] typename "\"Host\""
par Aloha.host[60] arrrate 0.8
par Aloha.host[60] packet_size 1B
attr unit B
par Aloha.host[60] x 191.094m
attr unit m
par Aloha.host[60] y 97.8846m
attr unit m
par Aloha.host[60] txrate 1000Bps
attr unit Bps
par Aloha.host[61] typename "\"Host\""
par Aloha.host[61] arrrate 0.8
par Aloha.host[61] packet_size 1B
attr unit B
par Aloha.host[61] x 136.583m
attr unit m
par Aloha.host[61] y 190.798m
attr unit m
par Aloha.host[61] txrate 1000Bps
attr unit Bps
par Aloha.host[62] typename "\"Host\""
par Aloha.host[62] arrrate 0.8
par Aloha.host[62] packet_size 1B
attr unit B
par Aloha.host[62] x 10.6257m
attr unit m
par Aloha.host[62] y 30.7478m
attr unit m
par Aloha.host[62] txrate 1000Bps
attr unit Bps
par Aloha.host[63] typename "\"Host\""
par Aloha.host[63] arrrate 0.8
par Aloha.host[63] packet_size 1B
attr unit B
par Aloha.host[63] x 61.7705m
attr unit m
par Aloha.host[63] y 129.824m
attr unit m
par Aloha.host[63] txrate 1000Bps
attr unit Bps
par Aloha.host[64] typename "\"Host\""
par Aloha.host[64] arrrate 0.8
par Aloha.host[64] packet_size 1B
attr unit B
par Aloha.host[64] x 118.519m
attr unit m
par Aloha.host[64] y 111.483m
attr unit m
par Aloha.host[64] txrate 1000Bps
attr unit Bps
par Aloha.host[65] typename "\"Host\""
par Aloha.host[65] arrrate 0.8
par Aloha.host[65] packet_size 1B
attr unit B
par Aloha.host[65] x 47.0241m
attr unit m
par Aloha.host[65] y 173.706m
attr unit m
par Aloha.host[65] txrate 1000Bps
attr unit Bps
par Aloha.host[66] typename "\"Host\""
par Aloha.host[66] arrrate 0.8
par Aloha.host[66] packet_size 1B
attr unit B
par Aloha.host[66] x 192.994m
attr unit m
par Aloha.host[66] y 28.7256m
attr unit m
par Aloha.host[66] txrate 1000Bps
attr unit Bps
par Aloha.host[67] typename "\"Host\""
par Aloha.host[67] arrrate 0.8
par Aloha.host[67] packet_size 1B
attr unit B
par Aloha.host[67] x 189.01m
attr unit m
par Aloha.host[67] y 89.5809m
attr unit m
par Aloha.host[67] txrate 1000Bps
attr unit Bps
par Aloha.host[68] typename "\"Host\""
par Aloha.host[68] arrrate 0.8
par Aloha.host[68] packet_size 1B
attr unit B
par Aloha.host[68] x 169.68m
attr unit m
par Aloha.host[68] y 131.847m
attr unit m
par Aloha.host[68] txrate 1000Bps
attr unit Bps
par Aloha.host[69] typename "\"Host\""
par Aloha.host[69] arrrate 0.8
par Aloha.host[69] packet_size 1B
attr unit B
par Aloha.host[69] x 94.4648m
attr unit m
par Aloha.host[69] y 132.342m
attr unit m
par Aloha.host[69] txrate 1000Bps
attr unit Bps
par Aloha.host[70] typename "\"Host\""
par Aloha.host[70] arrrate 0.8
par Aloha.host[70] packet_size 1B
attr unit B
par Aloha.host[70] x 168.295m
attr unit m
par Aloha.host[70] y 167.713m
attr unit m
par Aloha.host[70] txrate 1000Bps
attr unit Bps
par Aloha.host[71] typename "\"Host\""
par Aloha.host[71] arrrate 0.8
par Aloha.host[71] packet_size 1B
attr unit B
par Aloha.host[71] x 26.2221m
attr unit m
par Aloha.host[71] y 106.512m
attr unit m
par Aloha.host[71] txrate 1000Bps
attr unit Bps
par Aloha.host[72] typename "\"Host\""
par Aloha.host[72] arrrate 0.8
par Aloha.host[72] packet_size 1B
attr unit B
par Aloha.host[72] x 61.7467m
attr unit m
par Aloha.host[72] y 7.92922m
attr unit m
par Aloha.host[72] txrate 1000Bps
attr unit Bps
par Aloha.host[73] typename "\"Host\""
par Aloha.host[73] arrrate 0.8
par Aloha.host[73] packet_size 1B
attr unit B
par Aloha.host[73] x 92.5993m
attr unit m
par Aloha.host[73] y 19.1197m
attr unit m
par Aloha.host[73] txrate 1000Bps
attr unit Bps
par Aloha.host[74] typename "\"Host\""
par Aloha.host[74] arrrate 0.8
par Aloha.host[74] packet_size 1B
attr unit B
par Aloha.host[74] x 148.369m
attr unit m
par Aloha.host[74] y 159.779m
attr unit m
par Aloha.host[74] txrate 1000Bps
attr unit Bps
par Aloha.host[75] typename "\"Host\""
par Aloha.host[75] arrrate 0.8
par Aloha.host[75] packet_size 1B
attr unit B
par Aloha.host[75] x 97.165m
attr unit m
par Aloha.host[75] y 80.4777m
attr unit m
par Aloha.host[75] txrate 1000Bps
attr unit Bps
par Aloha.host[76] typename "\"Host\""
par Aloha.host[76] arrrate 0.8
par Aloha.host[76] packet_size 1B
attr unit B
par Aloha.host[76] x 27.3752m
attr unit m
par Aloha.host[76] y 136.49m
attr unit m
par Aloha.host[76] txrate 1000Bps
attr unit Bps
par Aloha.host[77] typename "\"Host\""
par Aloha.host[77] arrrate 0.8
par Aloha.host[77] packet_size 1B
attr unit B
par Aloha.host[77] x 68.7073m
attr unit m
par Aloha.host[77] y 100.385m
attr unit m
par Aloha.host[77] txrate 1000Bps
attr unit Bps
par Aloha.host[78] typename "\"Host\""
par Aloha.host[78] arrrate 0.8
par Aloha.host[78] packet_size 1B
attr unit B
par Aloha.host[78] x 64.8852m
attr unit m
par Aloha.host[78] y 79.4356m
attr unit m
par Aloha.host[78] txrate 1000Bps
attr unit Bps
par Aloha.host[79] typename "\"Host\""
par Aloha.host[79] arrrate 0.8
par Aloha.host[79] packet_size 1B
attr unit B
par Aloha.host[79] x 60.0838m
attr unit m
par Aloha.host[79] y 157.163m
attr unit m
par Aloha.host[79] txrate 1000Bps
attr unit Bps
par Aloha.host[80] typename "\"Host\""
par Aloha.host[80] arrrate 0.8
par Aloha.host[80] packet_size 1B
attr unit B
par Aloha.host[80] x 33.1003m
attr unit m
par Aloha.host[80] y 190.267m
attr unit m
par Aloha.host[80] txrate 1000Bps
attr unit Bps
par Aloha.host[81] typename "\"Host\""
par Aloha.host[81] arrrate 0.8
par Aloha.host[81] packet_size 1B
attr unit B
par Aloha.host[81] x 82.9804m
attr unit m
par Aloha.host[81] y 51.5909m
attr unit m
par Aloha.host[81] txrate 1000Bps
attr unit Bps
par Aloha.host[82] typename "\"Host\""
par Aloha.host[82] arrrate 0.8
par Aloha.host[82] packet_size 1B
attr unit B
par Aloha.host[82] x 89.6241m
attr unit m
par Aloha.host[82] y 103.976m
attr unit m
par Aloha.host[82] txrate 1000Bps
attr unit Bps
par Aloha.host[83] typename "\"Host\""
par Aloha.host[83] arrrate 0.8
par Aloha.host[83] packet_size 1B
attr unit B
par Aloha.host[83] x 154.98m
attr unit m
par Aloha.host[83] y 173.621m
attr unit m
par Aloha.host[83] txrate 1000Bps
attr unit Bps
par Aloha.host[84] typename "\"Host\""
par Aloha.host[84] arrrate 0.8
par Aloha.host[84] packet_size 1B
attr unit B
par Aloha.host[84] x 159.278m
attr unit m
par Aloha.host[84] y 91.8723m
attr unit m
par Aloha.host[84] txrate 1000Bps
attr unit Bps
par Aloha.host[85] typename "\"Host\""
par Aloha.host[85] arrrate 0.8
par Aloha.host[85] packet_size 1B
attr unit B
par Aloha.host[85] x 104.478m
attr unit m
par Aloha.host[85] y 22.0011m
attr unit m
par Aloha.host[85] txrate 1000Bps
attr unit Bps
par Aloha.host[86] typename "\"Host\""
par Aloha.host[86] arrrate 0.8
par Aloha.host[86] packet_size 1B
attr unit B
par Aloha.host[86] x 92.1261m
attr unit m
par Aloha.host[86] y 159.8m
attr unit m
par Aloha.host[86] txrate 1000Bps
attr unit Bps
par Aloha.host[87] typename "\"Host\""
par Aloha.host[87] arrrate 0.8
par Aloha.host[87] packet_size 1B
attr unit B
par Aloha.host[87] x 155.643m
attr unit m
par Aloha.host[87] y 99.5838m
attr unit m
par Aloha.host[87] txrate 1000Bps
attr unit Bps
par Aloha.host[88] typename "\"Host\""
par Aloha.host[88] arrrate 0.8
par Aloha.host[88] packet_size 1B
attr unit B
par Aloha.host[88] x 177.458m
attr unit m
par Aloha.host[88] y 39.4351m
attr unit m
par Aloha.host[88] txrate 1000Bps
attr unit Bps
par Aloha.host[89] typename "\"Host\""
par Aloha.host[89] arrrate 0.8
par Aloha.host[89] packet_size 1B
attr unit B
par Aloha.host[89] x 134.984m
attr unit m
par Aloha.host[89] y 175.215m
attr unit m
par Aloha.host[89] txrate 1000Bps
attr unit Bps
par Aloha.host[90] typename "\"Host\""
par Aloha.host[90] arrrate 0.8
par Aloha.host[90] packet_size 1B
attr unit B
par Aloha.host[90] x 160.096m
attr unit m
par Aloha.host[90] y 53.6349m
attr unit m
par Aloha.host[90] txrate 1000Bps
attr unit Bps
par Aloha.host[91] typename "\"Host\""
par Aloha.host[91] arrrate 0.8
par Aloha.host[91] packet_size 1B
attr unit B
par Aloha.host[91] x 187.822m
attr unit m
par Aloha.host[91] y 47.3876m
attr unit m
par Aloha.host[91] txrate 1000Bps
attr unit Bps
par Aloha.host[92] typename "\"Host\""
par Aloha.host[92] arrrate 0.8
par Aloha.host[92] packet_size 1B
attr unit B
par Aloha.host[92] x 8.13116m
attr unit m
par Aloha.host[92] y 74.5186m
attr unit m
par Aloha.host[92] txrate 1000Bps
attr unit Bps
par Aloha.host[93] typename "\"Host\""
par Aloha.host[93] arrrate 0.8
par Aloha.host[93] packet_size 1B
attr unit B
par Aloha.host[93] x 175.134m
attr unit m
par Aloha.host[93] y 77.1807m
attr unit m
par Aloha.host[93] txrate 1000Bps
attr unit Bps
par Aloha.host[94] typename "\"Host\""
par Aloha.host[94] arrrate 0.8
par Aloha.host[94] packet_size 1B
attr unit B
par Aloha.host[94] x 55.3126m
attr unit m
par Aloha.host[94] y 46.6181m
attr unit m
par Aloha.host[94] txrate 1000Bps
attr unit Bps
par Aloha.host[95] typename "\"Host\""
par Aloha.host[95] arrrate 0.8
par Aloha.host[95] packet_size 1B
attr unit B
par Aloha.host[95] x 95.1529m
attr unit m
par Aloha.host[95] y 35.1559m
attr unit m
par Aloha.host[95] txrate 1000Bps
attr unit Bps
par Aloha.host[96] typename "\"Host\""
par Aloha.host[96] arrrate 0.8
par Aloha.host[96] packet_size 1B
attr unit B
par Aloha.host[96] x 159.352m
attr unit m
par Aloha.host[96] y 79.7012m
attr unit m
par Aloha.host[96] txrate 1000Bps
attr unit Bps
par Aloha.host[97] typename "\"Host\""
par Aloha.host[97] arrrate 0.8
par Aloha.host[97] packet_size 1B
attr unit B
par Aloha.host[97] x 143.448m
attr unit m
par Aloha.host[97] y 168.326m
attr unit m
par Aloha.host[97] txrate 1000Bps
attr unit Bps
par Aloha.host[98] typename "\"Host\""
par Aloha.host[98] arrrate 0.8
par Aloha.host[98] packet_size 1B
attr unit B
par Aloha.host[98] x 29.4295m
attr unit m
par Aloha.host[98] y 157.346m
attr unit m
par Aloha.host[98] txrate 1000Bps
attr unit Bps
par Aloha.host[99] typename "\"Host\""
par Aloha.host[99] arrrate 0.8
par Aloha.host[99] packet_size 1B
attr unit B
par Aloha.host[99] x 131.75m
attr unit m
par Aloha.host[99] y 128.156m
attr unit m
par Aloha.host[99] txrate 1000Bps
attr unit Bps
par Aloha.host[100] typename "\"Host\""
par Aloha.host[100] arrrate 0.8
par Aloha.host[100] packet_size 1B
attr unit B
par Aloha.host[100] x 13.8504m
attr unit m
par Aloha.host[100] y 99.2034m
attr unit m
par Aloha.host[100] txrate 1000Bps
attr unit Bps
par Aloha.host[101] typename "\"Host\""
par Aloha.host[101] arrrate 0.8
par Aloha.host[101] packet_size 1B
attr unit B
par Aloha.host[101] x 71.4141m
attr unit m
par Aloha.host[101] y 94.6112m
attr unit m
par Aloha.host[101] txrate 1000Bps
attr unit Bps
par Aloha.host[102] typename "\"Host\""
par Aloha.host[102] arrrate 0.8
par Aloha.host[102] packet_size 1B
attr unit B
par Aloha.host[102] x 162.566m
attr unit m
par Aloha.host[102] y 94.8469m
attr unit m
par Aloha.host[102] txrate 1000Bps
attr unit Bps
par Aloha.host[103] typename "\"Host\""
par Aloha.host[103] arrrate 0.8
par Aloha.host[103] packet_size 1B
attr unit B
par Aloha.host[103] x 85.541m
attr unit m
par Aloha.host[103] y 188.715m
attr unit m
par Aloha.host[103] txrate 1000Bps
attr unit Bps
par Aloha.host[104] typename "\"Host\""
par Aloha.host[104] arrrate 0.8
par Aloha.host[104] packet_size 1B
attr unit B
par Aloha.host[104] x 119.971m
attr unit m
par Aloha.host[104] y 147.56m
attr unit m
par Aloha.host[104] txrate 1000Bps
attr unit Bps
par Aloha.host[105] typename "\"Host\""
par Aloha.host[105] arrrate 0.8
par Aloha.host[105] packet_size 1B
attr unit B
par Aloha.host[105] x 145.632m
attr unit m
par Aloha.host[105] y 8.3146m
attr unit m
par Aloha.host[105] txrate 1000Bps
attr unit Bps
par Aloha.host[106] typename "\"Host\""
par Aloha.host[106] arrrate 0.8
par Aloha.host[106] packet_size 1B
attr unit B
par Aloha.host[106] x 164.246m
attr unit m
par Aloha.host[106] y 151.556m
attr unit m
par Aloha.host[106] txrate 1000Bps
attr unit Bps
par Aloha.host[107] typename "\"Host\""
par Aloha.host[107] arrrate 0.8
par Aloha.host[107] packet_size 1B
attr unit B
par Aloha.host[107] x 152.103m
attr unit m
par Aloha.host[107] y 102.68m
attr unit m
par Aloha.host[107] txrate 1000Bps
attr unit Bps
par Aloha.host[108] typename "\"Host\""
par Aloha.host[108] arrrate 0.8
par Aloha.host[108] packet_size 1B
attr unit B
par Aloha.host[108] x 1.42866m
attr unit m
par Aloha.host[108] y 35.6852m
attr unit m
par Aloha.host[108] txrate 1000Bps
attr unit Bps
par Aloha.host[109] typename "\"Host\""
par Aloha.host[109] arrrate 0.8
par Aloha.host[109] packet_size 1B
attr unit B
par Aloha.host[109] x 84.0514m
attr unit m
par Aloha.host[109] y 78.4003m
attr unit m
par Aloha.host[109] txrate 1000Bps
attr unit Bps
par Aloha.host[110] typename "\"Host\""
par Aloha.host[110] arrrate 0.8
par Aloha.host[110] packet_size 1B
attr unit B
par Aloha.host[110] x 92.6272m
attr unit m
par Aloha.host[110] y 187.919m
attr unit m
par Aloha.host[110] txrate 1000Bps
attr unit Bps
par Aloha.host[111] typename "\"Host\""
par Aloha.host[111] arrrate 0.8
par Aloha.host[111] packet_size 1B
attr unit B
par Aloha.host[111] x 11.0999m
attr unit m
par Aloha.host[111] y 42.5837m
attr unit m
par Aloha.host[111] txrate 1000Bps
attr unit Bps
par Aloha.host[112] typename "\"Host\""
par Aloha.host[112] arrrate 0.8
par Aloha.host[112] packet_size 1B
attr unit B
par Aloha.host[112] x 108.288m
attr unit m
par Aloha.host[112] y 162.659m
attr unit m
par Aloha.host[112] txrate 1000Bps
attr unit Bps
par Aloha.host[113] typename "\"Host\""
par Aloha.host[113] arrrate 0.8
par Aloha.host[113] packet_size 1B
attr unit B
par Aloha.host[113] x 121.554m
attr unit m
par Aloha.host[113] y 80.7297m
attr unit m
par Aloha.host[113] txrate 1000Bps
attr unit Bps
par Aloha.host[114] typename "\"Host\""
par Aloha.host[114] arrrate 0.8
par Aloha.host[114] packet_size 1B
attr unit B
par Aloha.host[114] x 165.691m
attr unit m
par Aloha.host[114] y 117.344m
attr unit m
par Aloha.host[114] txrate 1000Bps
attr unit Bps
par Aloha.host[115] typename "\"Host\""
par Aloha.host[115] arrrate 0.8
par Aloha.host[115] packet_size 1B
attr unit B
par Aloha.host[115] x 188.362m
attr unit m
par Aloha.host[115] y 37.1998m
attr unit m
par Aloha.host[115] txrate 1000Bps
attr unit Bps
par Aloha.host[116] typename "\"Host\""
par Aloha.host[116] arrrate 0.8
par Aloha.host[116] packet_size 1B
attr unit B
par Aloha.host[116] x 25.6296m
attr unit m
par Aloha.host[116] y 162.465m
attr unit m
par Aloha.host[116] txrate 1000Bps
attr unit Bps
par Aloha.host[117] typename "\"Host\""
par Aloha.host[117] arrrate 0.8
par Aloha.host[117] packet_size 1B
attr unit B
par Aloha.host[117] x 46.0861m
attr unit m
par Aloha.host[117] y 116.169m
attr unit m
par Aloha.host[117] txrate 1000Bps
attr unit Bps
par Aloha.host[118] typename "\"Host\""
par Aloha.host[118] arrrate 0.8
par Aloha.host[118] packet_size 1B
attr unit B
par Aloha.host[118] x 131.832m
attr unit m
par Aloha.host[118] y 89.3865m
attr unit m
par Aloha.host[118] txrate 1000Bps
attr unit Bps
par Aloha.host[119] typename "\"Host\""
par Aloha.host[119] arrrate 0.8
par Aloha.host[119] packet_size 1B
attr unit B
par Aloha.host[119] x 26.4948m
attr unit m
par Aloha.host[119] y 159.616m
attr unit m
par Aloha.host[119] txrate 1000Bps
attr unit Bps
par Aloha.host[120] typename "\"Host\""
par Aloha.host[120] arrrate 0.8
par Aloha.host[120] packet_size 1B
attr unit B
par Aloha.host[120] x 44.8157m
attr unit m
par Aloha.host[120] y 108.854m
attr unit m
par Aloha.host[120] txrate 1000Bps
attr unit Bps
par Aloha.host[121] typename "\"Host\""
par Aloha.host[121] arrrate 0.8
par Aloha.host[121] packet_size 1B
attr unit B
par Aloha.host[121] x 114.973m
attr unit m
par Aloha.host[121] y 83.6833m
attr unit m
par Aloha.host[121] txrate 1000Bps
attr unit Bps
par Aloha.host[122] typename "\"Host\""
par Aloha.host[122] arrrate 0.8
par Aloha.host[122] packet_size 1B
attr unit B
par Aloha.host[122] x 33.9047m
attr unit m
par Aloha.host[122] y 3.83133m
attr unit m
par Aloha.host[122] txrate 1000Bps
attr unit Bps
par Aloha.host[123] typename "\"Host\""
par Aloha.host[123] arrrate 0.8
par Aloha.host[123] packet_size 1B
attr unit B
par Aloha.host[123] x 156.446m
attr unit m
par Aloha.host[123] y 136.755m
attr unit m
par Aloha.host[123] txrate 1000Bps
attr unit Bps
par Aloha.host[124] typename "\"Host\""
par Aloha.host[124] arrrate 0.8
par Aloha.host[124] packet_size 1B
attr unit B
par Aloha.host[124] x 171.395m
attr unit m
par Aloha.host[124] y 97.6196m
attr unit m
par Aloha.host[124] txrate 1000Bps
attr unit Bps
par Aloha.host[125] typename "\"Host\""
par Aloha.host[125] arrrate 0.8
par Aloha.host[125] packet_size 1B
attr unit B
par Aloha.host[125] x 6.73484m
attr unit m
par Aloha.host[125] y 44.1159m
attr unit m
par Aloha.host[125] txrate 1000Bps
attr unit Bps
par Aloha.host[126] typename "\"Host\""
par Aloha.host[126] arrrate 0.8
par Aloha.host[126] packet_size 1B
attr unit B
par Aloha.host[126] x 106.529m
attr unit m
par Aloha.host[126] y 110.109m
attr unit m
par Aloha.host[126] txrate 1000Bps
attr unit Bps
par Aloha.host[127] typename "\"Host\""
par Aloha.host[127] arrrate 0.8
par Aloha.host[127] packet_size 1B
attr unit B
par Aloha.host[127] x 159.39m
attr unit m
par Aloha.host[127] y 104.518m
attr unit m
par Aloha.host[127] txrate 1000Bps
attr unit Bps
par Aloha.host[128] typename "\"Host\""
par Aloha.host[128] arrrate 0.8
par Aloha.host[128] packet_size 1B
attr unit B
par Aloha.host[128] x 195.028m
attr unit m
par Aloha.host[128] y 97.5105m
attr unit m
par Aloha.host[128] txrate 1000Bps
attr unit Bps
par Aloha.host[129] typename "\"Host\""
par Aloha.host[129] arrrate 0.8
par Aloha.host[129] packet_size 1B
attr unit B
par Aloha.host[129] x 54.8517m
attr unit m
par Aloha.host[129] y 52.6063m
attr unit m
par Aloha.host[129] txrate 1000Bps
attr unit Bps
par Aloha.host[130] typename "\"Host\""
par Aloha.host[130] arrrate 0.8
par Aloha.host[130] packet_size 1B
attr unit B
par Aloha.host[130] x 33.8202m
attr unit m
par Aloha.host[130] y 105.457m
attr unit m
par Aloha.host[130] txrate 1000Bps
attr unit Bps
par Aloha.host[131] typename "\"Host\""
par Aloha.host[131] arrrate 0.8
par Aloha.host[131] packet_size 1B
attr unit B
par Aloha.host[131] x 175.34m
attr unit m
par Aloha.host[131] y 196.893m
attr unit m
par Aloha.host[131] txrate 1000Bps
attr unit Bps
par Aloha.host[132] typename "\"Host\""
par Aloha.host[132] arrrate 0.8
par Aloha.host[132] packet_size 1B
attr unit B
par Aloha.host[132] x 181.836m
attr unit m
par Aloha.host[132] y 124.685m
attr unit m
par Aloha.host[132] txrate 1000Bps
attr unit Bps
par Aloha.host[133] typename "\"Host\""
par Aloha.host[133] arrrate 0.8
par Aloha.host[133] packet_size 1B
attr unit B
par Aloha.host[133] x 39.5066m
attr unit m
par Aloha.host[133] y 125.911m
attr unit m
par Aloha.host[133] txrate 1000Bps
attr unit Bps
par Aloha.host[134] typename "\"Host\""
par Aloha.host[134] arrrate 0.8
par Aloha.host[134] packet_size 1B
attr unit B
par Aloha.host[134] x 88.3059m
attr unit m
par Aloha.host[134] y 181.995m
attr unit m
par Aloha.host[134] txrate 1000Bps
attr unit Bps
par Aloha.host[135] typename "\"Host\""
par Aloha.host[135] arrrate 0.8
par Aloha.host[135] packet_size 1B
attr unit B
par Aloha.host[135] x 143.846m
attr unit m
par Aloha.host[135] y 192.504m
attr unit m
par Aloha.host[135] txrate 1000Bps
attr unit Bps
par Aloha.host[136] typename "\"Host\""
par Aloha.host[136] arrrate 0.8
par Aloha.host[136] packet_size 1B
attr unit B
par Aloha.host[136] x 169.069m
attr unit m
par Aloha.host[136] y 117.02m
attr unit m
par Aloha.host[136] txrate 1000Bps
attr unit Bps
par Aloha.host[137] typename "\"Host\""
par Aloha.host[137] arrrate 0.8
par Aloha.host[137] packet_size 1B
attr unit B
par Aloha.host[137] x 33.6551m
attr unit m
par Aloha.host[137] y 32.9795m
attr unit m
par Aloha.host[137] txrate 1000Bps
attr unit Bps
par Aloha.host[138] typename "\"Host\""
par Aloha.host[138] arrrate 0.8
par Aloha.host[138] packet_size 1B
attr unit B
par Aloha.host[138] x 132.994m
attr unit m
par Aloha.host[138] y 78.3187m
attr unit m
par Aloha.host[138] txrate 1000Bps
attr unit Bps
par Aloha.host[139] typename "\"Host\""
par Aloha.host[139] arrrate 0.8
par Aloha.host[139] packet_size 1B
attr unit B
par Aloha.host[139] x 161.567m
attr unit m
par Aloha.host[139] y 188.911m
attr unit m
par Aloha.host[139] txrate 1000Bps
attr unit Bps
par Aloha.host[140] typename "\"Host\""
par Aloha.host[140] arrrate 0.8
par Aloha.host[140] packet_size 1B
attr unit B
par Aloha.host[140] x 109.943m
attr unit m
par Aloha.host[140] y 68.6782m
attr unit m
par Aloha.host[140] txrate 1000Bps
attr unit Bps
par Aloha.host[141] typename "\"Host\""
par Aloha.host[141] arrrate 0.8
par Aloha.host[141] packet_size 1B
attr unit B
par Aloha.host[141] x 32.9433m
attr unit m
par Aloha.host[141] y 141.014m
attr unit m
par Aloha.host[141] txrate 1000Bps
attr unit Bps
par Aloha.host[142] typename "\"Host\""
par Aloha.host[142] arrrate 0.8
par Aloha.host[142] packet_size 1B
attr unit B
par Aloha.host[142] x 7.10576m
attr unit m
par Aloha.host[142] y 92.5774m
attr unit m
par Aloha.host[142] txrate 1000Bps
attr unit Bps
par Aloha.host[143] typename "\"Host\""
par Aloha.host[143] arrrate 0.8
par Aloha.host[143] packet_size 1B
attr unit B
par Aloha.host[143] x 56.3068m
attr unit m
par Aloha.host[143] y 77.3581m
attr unit m
par Aloha.host[143] txrate 1000Bps
attr unit Bps
par Aloha.host[144] typename "\"Host\""
par Aloha.host[144] arrrate 0.8
par Aloha.host[144] packet_size 1B
attr unit B
par Aloha.host[144] x 161.574m
attr unit m
par Aloha.host[144] y 105.687m
attr unit m
par Aloha.host[144] txrate 1000Bps
attr unit Bps
par Aloha.host[145] typename "\"Host\""
par Aloha.host[145] arrrate 0.8
par Aloha.host[145] packet_size 1B
attr unit B
par Aloha.host[145] x 8.95325m
attr unit m
par Aloha.host[145] y 164.338m
attr unit m
par Aloha.host[145] txrate 1000Bps
attr unit Bps
par Aloha.host[146] typename "\"Host\""
par Aloha.host[146] arrrate 0.8
par Aloha.host[146] packet_size 1B
attr unit B
par Aloha.host[146] x 1.6433m
attr unit m
par Aloha.host[146] y 127.695m
attr unit m
par Aloha.host[146] txrate 1000Bps
attr unit Bps
par Aloha.host[147] typename "\"Host\""
par Aloha.host[147] arrrate 0.8
par Aloha.host[147] packet_size 1B
attr unit B
par Aloha.host[147] x 72.3233m
attr unit m
par Aloha.host[147] y 172.578m
attr unit m
par Aloha.host[147] txrate 1000Bps
attr unit Bps
par Aloha.host[148] typename "\"Host\""
par Aloha.host[148] arrrate 0.8
par Aloha.host[148] packet_size 1B
attr unit B
par Aloha.host[148] x 12.7245m
attr unit m
par Aloha.host[148] y 127.325m
attr unit m
par Aloha.host[148] txrate 1000Bps
attr unit Bps
par Aloha.host[149] typename "\"Host\""
par Aloha.host[149] arrrate 0.8
par Aloha.host[149] packet_size 1B
attr unit B
par Aloha.host[149] x 29.8973m
attr unit m
par Aloha.host[149] y 199.859m
attr unit m
par Aloha.host[149] txrate 1000Bps
attr unit Bps
par Aloha.host[150] typename "\"Host\""
par Aloha.host[150] arrrate 0.8
par Aloha.host[150] packet_size 1B
attr unit B
par Aloha.host[150] x 4.63807m
attr unit m
par Aloha.host[150] y 103.556m
attr unit m
par Aloha.host[150] txrate 1000Bps
attr unit Bps
par Aloha.host[151] typename "\"Host\""
par Aloha.host[151] arrrate 0.8
par Aloha.host[151] packet_size 1B
attr unit B
par Aloha.host[151] x 104.944m
attr unit m
par Aloha.host[151] y 65.5233m
attr unit m
par Aloha.host[151] txrate 1000Bps
attr unit Bps
par Aloha.host[152] typename "\"Host\""
par Aloha.host[152] arrrate 0.8
par Aloha.host[152] packet_size 1B
attr unit B
par Aloha.host[152] x 139.339m
attr unit m
par Aloha.host[152] y 19.7546m
attr unit m
par Aloha.host[152] txrate 1000Bps
attr unit Bps
par Aloha.host[153] typename "\"Host\""
par Aloha.host[153] arrrate 0.8
par Aloha.host[153] packet_size 1B
attr unit B
par Aloha.host[153] x 85.4107m
attr unit m
par Aloha.host[153] y 113.353m
attr unit m
par Aloha.host[153] txrate 1000Bps
attr unit Bps
par Aloha.host[154] typename "\"Host\""
par Aloha.host[154] arrrate 0.8
par Aloha.host[154] packet_size 1B
attr unit B
par Aloha.host[154] x 26.9141m
attr unit m
par Aloha.host[154] y 43.0416m
attr unit m
par Aloha.host[154] txrate 1000Bps
attr unit Bps
par Aloha.host[155] typename "\"Host\""
par Aloha.host[155] arrrate 0.8
par Aloha.host[155] packet_size 1B
attr unit B
par Aloha.host[155] x 66.2714m
attr unit m
par Aloha.host[155] y 2.35816m
attr unit m
par Aloha.host[155] txrate 1000Bps
attr unit Bps
par Aloha.host[156] typename "\"Host\""
par Aloha.host[156] arrrate 0.8
par Aloha.host[156] packet_size 1B
attr unit B
par Aloha.host[156] x 118.069m
attr unit m
par Aloha.host[156] y 59.8431m
attr unit m
par Aloha.host[156] txrate 1000Bps
attr unit Bps
par Aloha.host[157] typename "\"Host\""
par Aloha.host[157] arrrate 0.8
par Aloha.host[157] packet_size 1B
attr unit B
par Aloha.host[157] x 188.132m
attr unit m
par Aloha.host[157] y 7.79548m
attr unit m
par Aloha.host[157] txrate 1000Bps
attr unit Bps
par Aloha.host[158] typename "\"Host\""
par Aloha.host[158] arrrate 0.8
par Aloha.host[158] packet_size 1B
attr unit B
par Aloha.host[158] x 198.512m
attr unit m
par Aloha.host[158] y 195.243m
attr unit m
par Aloha.host[158] txrate 1000Bps
attr unit Bps
par Aloha.host[159] typename "\"Host\""
par Aloha.host[159] arrrate 0.8
par Aloha.host[159] packet_size 1B
attr unit B
par Aloha.host[159] x 48.3206m
attr unit m
par Aloha.host[159] y 110.291m
attr unit m
par Aloha.host[159] txrate 1000Bps
attr unit Bps
par Aloha.host[160] typename "\"Host\""
par Aloha.host[160] arrrate 0.8
par Aloha.host[160] packet_size 1B
attr unit B
par Aloha.host[160] x 2.11598m
attr unit m
par Aloha.host[160] y 14.3432m
attr unit m
par Aloha.host[160] txrate 1000Bps
attr unit Bps
par Aloha.host[161] typename "\"Host\""
par Aloha.host[161] arrrate 0.8
par Aloha.host[161] packet_size 1B
attr unit B
par Aloha.host[161] x 166.128m
attr unit m
par Aloha.host[161] y 68.0136m
attr unit m
par Aloha.host[161] txrate 1000Bps
attr unit Bps
par Aloha.host[162] typename "\"Host\""
par Aloha.host[162] arrrate 0.8
par Aloha.host[162] packet_size 1B
attr unit B
par Aloha.host[162] x 185.323m
attr unit m
par Aloha.host[162] y 48.5805m
attr unit m
par Aloha.host[162] txrate 1000Bps
attr unit Bps
par Aloha.host[163] typename "\"Host\""
par Aloha.host[163] arrrate 0.8
par Aloha.host[163] packet_size 1B
attr unit B
par Aloha.host[163] x 91.7207m
attr unit m
par Aloha.host[163] y 21.4702m
attr unit m
par Aloha.host[163] txrate 1000Bps
attr unit Bps
par Aloha.host[164] typename "\"Host\""
par Aloha.host[164] arrrate 0.8
par Aloha.host[164] packet_size 1B
attr unit B
par Aloha.host[164] x 154.288m
attr unit m
par Aloha.host[164] y 154.066m
attr unit m
par Aloha.host[164] txrate 1000Bps
attr unit Bps
par Aloha.host[165] typename "\"Host\""
par Aloha.host[165] arrrate 0.8
par Aloha.host[165] packet_size 1B
attr unit B
par Aloha.host[165] x 173.24m
attr unit m
par Aloha.host[165] y 70.1203m
attr unit m
par Aloha.host[165] txrate 1000Bps
attr unit Bps
par Aloha.host[166] typename "\"Host\""
par Aloha.host[166] arrrate 0.8
par Aloha.host[166] packet_size 1B
attr unit B
par Aloha.host[166] x 121.923m
attr unit m
par Aloha.host[166] y 37.5285m
attr unit m
par Aloha.host[166] txrate 1000Bps
attr unit Bps
par Aloha.host[167] typename "\"Host\""
par Aloha.host[167] arrrate 0.8
par Aloha.host[167] packet_size 1B
attr unit B
par Aloha.host[167] x 174.525m
attr unit m
par Aloha.host[167] y 182.531m
attr unit m
par Aloha.host[167] txrate 1000Bps
attr unit Bps
par Aloha.host[168] typename "\"Host\""
par Aloha.host[168] arrrate 0.8
par Aloha.host[168] packet_size 1B
attr unit B
par Aloha.host[168] x 4.7806m
attr unit m
par Aloha.host[168] y 172.23m
attr unit m
par Aloha.host[168] txrate 1000Bps
attr unit Bps
par Aloha.host[169] typename "\"Host\""
par Aloha.host[169] arrrate 0.8
par Aloha.host[169] packet_size 1B
attr unit B
par Aloha.host[169] x 54.319m
attr unit m
par Aloha.host[169] y 79.7796m
attr unit m
par Aloha.host[169] txrate 1000Bps
attr unit Bps
par Aloha.host[170] typename "\"Host\""
par Aloha.host[170] arrrate 0.8
par Aloha.host[170] packet_size 1B
attr unit B
par Aloha.host[170] x 55.4439m
attr unit m
par Aloha.host[170] y 109.267m
attr unit m
par Aloha.host[170] txrate 1000Bps
attr unit Bps
par Aloha.host[171] typename "\"Host\""
par Aloha.host[171] arrrate 0.8
par Aloha.host[171] packet_size 1B
attr unit B
par Aloha.host[171] x 24.1265m
attr unit m
par Aloha.host[171] y 90.0751m
attr unit m
par Aloha.host[171] txrate 1000Bps
attr unit Bps
par Aloha.host[172] typename "\"Host\""
par Aloha.host[172] arrrate 0.8
par Aloha.host[172] packet_size 1B
attr unit B
par Aloha.host[172] x 182.143m
attr unit m
par Aloha.host[172] y 138.72m
attr unit m
par Aloha.host[172] txrate 1000Bps
attr unit Bps
par Aloha.host[173] typename "\"Host\""
par Aloha.host[173] arrrate 0.8
par Aloha.host[173] packet_size 1B
attr unit B
par Aloha.host[173] x 6.08785m
attr unit m
par Aloha.host[173] y 42.7692m
attr unit m
par Aloha.host[173] txrate 1000Bps
attr unit Bps
par Aloha.host[174] typename "\"Host\""
par Aloha.host[174] arrrate 0.8
par Aloha.host[174] packet_size 1B
attr unit B
par Aloha.host[174] x 134.512m
attr unit m
par Aloha.host[174] y 64.7598m
attr unit m
par Aloha.host[174] txrate 1000Bps
attr unit Bps
par Aloha.host[175] typename "\"Host\""
par Aloha.host[175] arrrate 0.8
par Aloha.host[175] packet_size 1B
attr unit B
par Aloha.host[175] x 14.2679m
attr unit m
par Aloha.host[175] y 147.979m
attr unit m
par Aloha.host[175] txrate 1000Bps
attr unit Bps
par Aloha.host[176] typename "\"Host\""
par Aloha.host[176] arrrate 0.8
par Aloha.host[176] packet_size 1B
attr unit B
par Aloha.host[176] x 72.1561m
attr unit m
par Aloha.host[176] y 36.5141m
attr unit m
par Aloha.host[176] txrate 1000Bps
attr unit Bps
par Aloha.host[177] typename "\"Host\""
par Aloha.host[177] arrrate 0.8
par Aloha.host[177] packet_size 1B
attr unit B
par Aloha.host[177] x 83.6199m
attr unit m
par Aloha.host[177] y 139.204m
attr unit m
par Aloha.host[177] txrate 1000Bps
attr unit Bps
par Aloha.host[178] typename "\"Host\""
par Aloha.host[178] arrrate 0.8
par Aloha.host[178] packet_size 1B
attr unit B
par Aloha.host[178] x 36.2809m
attr unit m
par Aloha.host[178] y 105.347m
attr unit m
par Aloha.host[178] txrate 1000Bps
attr unit Bps
par Aloha.host[179] typename "\"Host\""
par Aloha.host[179] arrrate 0.8
par Aloha.host[179] packet_size 1B
attr unit B
par Aloha.host[179] x 104.203m
attr unit m
par Aloha.host[179] y 39.6982m
attr unit m
par Aloha.host[179] txrate 1000Bps
attr unit Bps
par Aloha.host[180] typename "\"Host\""
par Aloha.host[180] arrrate 0.8
par Aloha.host[180] packet_size 1B
attr unit B
par Aloha.host[180] x 106.998m
attr unit m
par Aloha.host[180] y 130.093m
attr unit m
par Aloha.host[180] txrate 1000Bps
attr unit Bps
par Aloha.host[181] typename "\"Host\""
par Aloha.host[181] arrrate 0.8
par Aloha.host[181] packet_size 1B
attr unit B
par Aloha.host[181] x 63.4088m
attr unit m
par Aloha.host[181] y 101.955m
attr unit m
par Aloha.host[181] txrate 1000Bps
attr unit Bps
par Aloha.host[182] typename "\"Host\""
par Aloha.host[182] arrrate 0.8
par Aloha.host[182] packet_size 1B
attr unit B
par Aloha.host[182] x 147.418m
attr unit m
par Aloha.host[182] y 137.807m
attr unit m
par Aloha.host[182] txrate 1000Bps
attr unit Bps
par Aloha.host[183] typename "\"Host\""
par Aloha.host[183] arrrate 0.8
par Aloha.host[183] packet_size 1B
attr unit B
par Aloha.host[183] x 32.0405m
attr unit m
par Aloha.host[183] y 114.686m
attr unit m
par Aloha.host[183] txrate 1000Bps
attr unit Bps
par Aloha.host[184] typename "\"Host\""
par Aloha.host[184] arrrate 0.8
par Aloha.host[184] packet_size 1B
attr unit B
par Aloha.host[184] x 38.5016m
attr unit m
par Aloha.host[184] y 154.024m
attr unit m
par Aloha.host[184] txrate 1000Bps
attr unit Bps
par Aloha.host[185] typename "\"Host\""
par Aloha.host[185] arrrate 0.8
par Aloha.host[185] packet_size 1B
attr unit B
par Aloha.host[185] x 70.9022m
attr unit m
par Aloha.host[185] y 78.6096m
attr unit m
par Aloha.host[185] txrate 1000Bps
attr unit Bps
par Aloha.host[186] typename "\"Host\""
par Aloha.host[186] arrrate 0.8
par Aloha.host[186] packet_size 1B
attr unit B
par Aloha.host[186] x 75.6752m
attr unit m
par Aloha.host[186] y 191.718m
attr unit m
par Aloha.host[186] txrate 1000Bps
attr unit Bps
par Aloha.host[187] typename "\"Host\""
par Aloha.host[187] arrrate 0.8
par Aloha.host[187] packet_size 1B
attr unit B
par Aloha.host[187] x 41.2572m
attr unit m
par Aloha.host[187] y 195.61m
attr unit m
par Aloha.host[187] txrate 1000Bps
attr unit Bps
par Aloha.host[188] typename "\"Host\""
par Aloha.host[188] arrrate 0.8
par Aloha.host[188] packet_size 1B
attr unit B
par Aloha.host[188] x 183.742m
attr unit m
par Aloha.host[188] y 41.3762m
attr unit m
par Aloha.host[188] txrate 1000Bps
attr unit Bps
par Aloha.host[189] typename "\"Host\""
par Aloha.host[189] arrrate 0.8
par Aloha.host[189] packet_size 1B
attr unit B
par Aloha.host[189] x 165.619m
attr unit m
par Aloha.host[189] y 95.2003m
attr unit m
par Aloha.host[189] txrate 1000Bps
attr unit Bps
par Aloha.host[190] typename "\"Host\""
par Aloha.host[190] arrrate 0.8
par Aloha.host[190] packet_size 1B
attr unit B
par Aloha.host[190] x 21.3753m
attr unit m
par Aloha.host[190] y 158.033m
attr unit m
par Aloha.host[190] txrate 1000Bps
attr unit Bps
par Aloha.host[191] typename "\"Host\""
par Aloha.host[191] arrrate 0.8
par Aloha.host[191] packet_size 1B
attr unit B
par Aloha.host[191] x 73.8972m
attr unit m
par Aloha.host[191] y 25.5873m
attr unit m
par Aloha.host[191] txrate 1000Bps
attr unit Bps
par Aloha.host[192] typename "\"Host\""
par Aloha.host[192] arrrate 0.8
par Aloha.host[192] packet_size 1B
attr unit B
par Aloha.host[192] x 46.5342m
attr unit m
par Aloha.host[192] y 165.399m
attr unit m
par Aloha.host[192] txrate 1000Bps
attr unit Bps
par Aloha.host[193] typename "\"Host\""
par Aloha.host[193] arrrate 0.8
par Aloha.host[193] packet_size 1B
attr unit B
par Aloha.host[193] x 90.2157m
attr unit m
par Aloha.host[193] y 47.4872m
attr unit m
par Aloha.host[193] txrate 1000Bps
attr unit Bps
par Aloha.host[194] typename "\"Host\""
par Aloha.host[194] arrrate 0.8
par Aloha.host[194] packet_size 1B
attr unit B
par Aloha.host[194] x 55.2634m
attr unit m
par Aloha.host[194] y 188.113m
attr unit m
par Aloha.host[194] txrate 1000Bps
attr unit Bps
par Aloha.host[195] typename "\"Host\""
par Aloha.host[195] arrrate 0.8
par Aloha.host[195] packet_size 1B
attr unit B
par Aloha.host[195] x 100.361m
attr unit m
par Aloha.host[195] y 164.132m
attr unit m
par Aloha.host[195] txrate 1000Bps
attr unit Bps
par Aloha.host[196] typename "\"Host\""
par Aloha.host[196] arrrate 0.8
par Aloha.host[196] packet_size 1B
attr unit B
par Aloha.host[196] x 184.521m
attr unit m
par Aloha.host[196] y 10.3519m
attr unit m
par Aloha.host[196] txrate 1000Bps
attr unit Bps
par Aloha.host[197] typename "\"Host\""
par Aloha.host[197] arrrate 0.8
par Aloha.host[197] packet_size 1B
attr unit B
par Aloha.host[197] x 76.5022m
attr unit m
par Aloha.host[197] y 0.370929m
attr unit m
par Aloha.host[197] txrate 1000Bps
attr unit Bps
par Aloha.host[198] typename "\"Host\""
par Aloha.host[198] arrrate 0.8
par Aloha.host[198] packet_size 1B
attr unit B
par Aloha.host[198] x 130.026m
attr unit m
par Aloha.host[198] y 35.3945m
attr unit m
par Aloha.host[198] txrate 1000Bps
attr unit Bps
par Aloha.host[199] typename "\"Host\""
par Aloha.host[199] arrrate 0.8
par Aloha.host[199] packet_size 1B
attr unit B
par Aloha.host[199] x 119.124m
attr unit m
par Aloha.host[199] y 107.685m
attr unit m
par Aloha.host[199] txrate 1000Bps
attr unit Bps
par Aloha.host[200] typename "\"Host\""
par Aloha.host[200] arrrate 0.8
par Aloha.host[200] packet_size 1B
attr unit B
par Aloha.host[200] x 150.391m
attr unit m
par Aloha.host[200] y 107.603m
attr unit m
par Aloha.host[200] txrate 1000Bps
attr unit Bps
par Aloha.host[201] typename "\"Host\""
par Aloha.host[201] arrrate 0.8
par Aloha.host[201] packet_size 1B
attr unit B
par Aloha.host[201] x 12.3331m
attr unit m
par Aloha.host[201] y 102.354m
attr unit m
par Aloha.host[201] txrate 1000Bps
attr unit Bps
par Aloha.host[202] typename "\"Host\""
par Aloha.host[202] arrrate 0.8
par Aloha.host[202] packet_size 1B
attr unit B
par Aloha.host[202] x 148.965m
attr unit m
par Aloha.host[202] y 48.4372m
attr unit m
par Aloha.host[202] txrate 1000Bps
attr unit Bps
par Aloha.host[203] typename "\"Host\""
par Aloha.host[203] arrrate 0.8
par Aloha.host[203] packet_size 1B
attr unit B
par Aloha.host[203] x 189.255m
attr unit m
par Aloha.host[203] y 1.23535m
attr unit m
par Aloha.host[203] txrate 1000Bps
attr unit Bps
par Aloha.host[204] typename "\"Host\""
par Aloha.host[204] arrrate 0.8
par Aloha.host[204] packet_size 1B
attr unit B
par Aloha.host[204] x 120.712m
attr unit m
par Aloha.host[204] y 148.253m
attr unit m
par Aloha.host[204] txrate 1000Bps
attr unit Bps
par Aloha.host[205] typename "\"Host\""
par Aloha.host[205] arrrate 0.8
par Aloha.host[205] packet_size 1B
attr unit B
par Aloha.host[205] x 57.516m
attr unit m
par Aloha.host[205] y 89.9409m
attr unit m
par Aloha.host[205] txrate 1000Bps
attr unit Bps
par Aloha.host[206] typename "\"Host\""
par Aloha.host[206] arrrate 0.8
par Aloha.host[206] packet_size 1B
attr unit B
par Aloha.host[206] x 134.474m
attr unit m
par Aloha.host[206] y 174.943m
attr unit m
par Aloha.host[206] txrate 1000Bps
attr unit Bps
par Aloha.host[207] typename "\"Host\""
par Aloha.host[207] arrrate 0.8
par Aloha.host[207] packet_size 1B
attr unit B
par Aloha.host[207] x 142.41m
attr unit m
par Aloha.host[207] y 77.3911m
attr unit m
par Aloha.host[207] txrate 1000Bps
attr unit Bps
par Aloha.host[208] typename "\"Host\""
par Aloha.host[208] arrrate 0.8
par Aloha.host[208] packet_size 1B
attr unit B
par Aloha.host[208] x 131.29m
attr unit m
par Aloha.host[208] y 0.832033m
attr unit m
par Aloha.host[208] txrate 1000Bps
attr unit Bps
par Aloha.host[209] typename "\"Host\""
par Aloha.host[209] arrrate 0.8
par Aloha.host[209] packet_size 1B
attr unit B
par Aloha.host[209] x 29.3861m
attr unit m
par Aloha.host[209] y 29.342m
attr unit m
par Aloha.host[209] txrate 1000Bps
attr unit Bps
par Aloha.host[210] typename "\"Host\""
par Aloha.host[210] arrrate 0.8
par Aloha.host[210] packet_size 1B
attr unit B
par Aloha.host[210] x 194.695m
attr unit m
par Aloha.host[210] y 7.33363m
attr unit m
par Aloha.host[210] txrate 1000Bps
attr unit Bps
par Aloha.host[211] typename "\"Host\""
par Aloha.host[211] arrrate 0.8
par Aloha.host[211] packet_size 1B
attr unit B
par Aloha.host[211] x 191.077m
attr unit m
par Aloha.host[211] y 54.4392m
attr unit m
par Aloha.host[211] txrate 1000Bps
attr unit Bps
par Aloha.host[212] typename "\"Host\""
par Aloha.host[212] arrrate 0.8
par Aloha.host[212] packet_size 1B
attr unit B
par Aloha.host[212] x 84.9251m
attr unit m
par Aloha.host[212] y 52.5241m
attr unit m
par Aloha.host[212] txrate 1000Bps
attr unit Bps
par Aloha.host[213] typename "\"Host\""
par Aloha.host[213] arrrate 0.8
par Aloha.host[213] packet_size 1B
attr unit B
par Aloha.host[213] x 118.727m
attr unit m
par Aloha.host[213] y 121.849m
attr unit m
par Aloha.host[213] txrate 1000Bps
attr unit Bps
par Aloha.host[214] typename "\"Host\""
par Aloha.host[214] arrrate 0.8
par Aloha.host[214] packet_size 1B
attr unit B
par Aloha.host[214] x 7.92571m
attr unit m
par Aloha.host[214] y 29.6589m
attr unit m
par Aloha.host[214] txrate 1000Bps
attr unit Bps
par Aloha.host[215] typename "\"Host\""
par Aloha.host[215] arrrate 0.8
par Aloha.host[215] packet_size 1B
attr unit B
par Aloha.host[215] x 197.727m
attr unit m
par Aloha.host[215] y 41.5391m
attr unit m
par Aloha.host[215] txrate 1000Bps
attr unit Bps
par Aloha.host[216] typename "\"Host\""
par Aloha.host[216] arrrate 0.8
par Aloha.host[216] packet_size 1B
attr unit B
par Aloha.host[216] x 163.749m
attr unit m
par Aloha.host[216] y 144.255m
attr unit m
par Aloha.host[216] txrate 1000Bps
attr unit Bps
par Aloha.host[217] typename "\"Host\""
par Aloha.host[217] arrrate 0.8
par Aloha.host[217] packet_size 1B
attr unit B
par Aloha.host[217] x 127.3m
attr unit m
par Aloha.host[217] y 53.5176m
attr unit m
par Aloha.host[217] txrate 1000Bps
attr unit Bps
par Aloha.host[218] typename "\"Host\""
par Aloha.host[218] arrrate 0.8
par Aloha.host[218] packet_size 1B
attr unit B
par Aloha.host[218] x 152.217m
attr unit m
par Aloha.host[218] y 36.9792m
attr unit m
par Aloha.host[218] txrate 1000Bps
attr unit Bps
par Aloha.host[219] typename "\"Host\""
par Aloha.host[219] arrrate 0.8
par Aloha.host[219] packet_size 1B
attr unit B
par Aloha.host[219] x 37.606m
attr unit m
par Aloha.host[219] y 162.071m
attr unit m
par Aloha.host[219] txrate 1000Bps
attr unit Bps
par Aloha.host[220] typename "\"Host\""
par Aloha.host[220] arrrate 0.8
par Aloha.host[220] packet_size 1B
attr unit B
par Aloha.host[220] x 61.5309m
attr unit m
par Aloha.host[220] y 18.2068m
attr unit m
par Aloha.host[220] txrate 1000Bps
attr unit Bps
par Aloha.host[221] typename "\"Host\""
par Aloha.host[221] arrrate 0.8
par Aloha.host[221] packet_size 1B
attr unit B
par Aloha.host[221] x 49.2787m
attr unit m
par Aloha.host[221] y 25.9339m
attr unit m
par Aloha.host[221] txrate 1000Bps
attr unit Bps
par Aloha.host[222] typename "\"Host\""
par Aloha.host[222] arrrate 0.8
par Aloha.host[222] packet_size 1B
attr unit B
par Aloha.host[222] x 119.21m
attr unit m
par Aloha.host[222] y 135.919m
attr unit m
par Aloha.host[222] txrate 1000Bps
attr unit Bps
par Aloha.host[223] typename "\"Host\""
par Aloha.host[223] arrrate 0.8
par Aloha.host[223] packet_size 1B
attr unit B
par Aloha.host[223] x 18.381m
attr unit m
par Aloha.host[223] y 89.9195m
attr unit m
par Aloha.host[223] txrate 1000Bps
attr unit Bps
par Aloha.host[224] typename "\"Host\""
par Aloha.host[224] arrrate 0.8
par Aloha.host[224] packet_size 1B
attr unit B
par Aloha.host[224] x 179.122m
attr unit m
par Aloha.host[224] y 77.9326m
attr unit m
par Aloha.host[224] txrate 1000Bps
attr unit Bps
par Aloha.host[225] typename "\"Host\""
par Aloha.host[225] arrrate 0.8
par Aloha.host[225] packet_size 1B
attr unit B
par Aloha.host[225] x 92.4552m
attr unit m
par Aloha.host[225] y 132.369m
attr unit m
par Aloha.host[225] txrate 1000Bps
attr unit Bps
par Aloha.host[226] typename "\"Host\""
par Aloha.host[226] arrrate 0.8
par Aloha.host[226] packet_size 1B
attr unit B
par Aloha.host[226] x 88.9625m
attr unit m
par Aloha.host[226] y 2.09671m
attr unit m
par Aloha.host[226] txrate 1000Bps
attr unit Bps
par Aloha.host[227] typename "\"Host\""
par Aloha.host[227] arrrate 0.8
par Aloha.host[227] packet_size 1B
attr unit B
par Aloha.host[227] x 20.9423m
attr unit m
par Aloha.host[227] y 52.3038m
attr unit m
par Aloha.host[227] txrate 1000Bps
attr unit Bps
par Aloha.host[228] typename "\"Host\""
par Aloha.host[228] arrrate 0.8
par Aloha.host[228] packet_size 1B
attr unit B
par Aloha.host[228] x 136.981m
attr unit m
par Aloha.host[228] y 150.447m
attr unit m
par Aloha.host[228] txrate 1000Bps
attr unit Bps
par Aloha.host[229] typename "\"Host\""
par Aloha.host[229] arrrate 0.8
par Aloha.host[229] packet_size 1B
attr unit B
par Aloha.host[229] x 163.379m
attr unit m
par Aloha.host[229] y 187.498m
attr unit m
par Aloha.host[229] txrate 1000Bps
attr unit Bps
par Aloha.host[230] typename "\"Host\""
par Aloha.host[230] arrrate 0.8
par Aloha.host[230] packet_size 1B
attr unit B
par Aloha.host[230] x 125.91m
attr unit m
par Aloha.host[230] y 135.137m
attr unit m
par Aloha.host[230] txrate 1000Bps
attr unit Bps
par Aloha.host[231] typename "\"Host\""
par Aloha.host[231] arrrate 0.8
par Aloha.host[231] packet_size 1B
attr unit B
par Aloha.host[231] x 48.4045m
attr unit m
par Aloha.host[231] y 99.6944m
attr unit m
par Aloha.host[231] txrate 1000Bps
attr unit Bps
par Aloha.host[232] typename "\"Host\""
par Aloha.host[232] arrrate 0.8
par Aloha.host[232] packet_size 1B
attr unit B
par Aloha.host[232] x 157.084m
attr unit m
par Aloha.host[232] y 155.066m
attr unit m
par Aloha.host[232] txrate 1000Bps
attr unit Bps
par Aloha.host[233] typename "\"Host\""
par Aloha.host[233] arrrate 0.8
par Aloha.host[233] packet_size 1B
attr unit B
par Aloha.host[233] x 29.1359m
attr unit m
par Aloha.host[233] y 113.01m
attr unit m
par Aloha.host[233] txrate 1000Bps
attr unit Bps
par Aloha.host[234] typename "\"Host\""
par Aloha.host[234] arrrate 0.8
par Aloha.host[234] packet_size 1B
attr unit B
par Aloha.host[234] x 165.455m
attr unit m
par Aloha.host[234] y 60.7644m
attr unit m
par Aloha.host[234] txrate 1000Bps
attr unit Bps
par Aloha.host[235] typename "\"Host\""
par Aloha.host[235] arrrate 0.8
par Aloha.host[235] packet_size 1B
attr unit B
par Aloha.host[235] x 116.141m
attr unit m
par Aloha.host[235] y 96.1851m
attr unit m
par Aloha.host[235] txrate 1000Bps
attr unit Bps
par Aloha.host[236] typename "\"Host\""
par Aloha.host[236] arrrate 0.8
par Aloha.host[236] packet_size 1B
attr unit B
par Aloha.host[236] x 57.8746m
attr unit m
par Aloha.host[236] y 63.006m
attr unit m
par Aloha.host[236] txrate 1000Bps
attr unit Bps
par Aloha.host[237] typename "\"Host\""
par Aloha.host[237] arrrate 0.8
par Aloha.host[237] packet_size 1B
attr unit B
par Aloha.host[237] x 102.649m
attr unit m
par Aloha.host[237] y 7.60444m
attr unit m
par Aloha.host[237] txrate 1000Bps
attr unit Bps
par Aloha.host[238] typename "\"Host\""
par Aloha.host[238] arrrate 0.8
par Aloha.host[238] packet_size 1B
attr unit B
par Aloha.host[238] x 125.77m
attr unit m
par Aloha.host[238] y 113.79m
attr unit m
par Aloha.host[238] txrate 1000Bps
attr unit Bps
par Aloha.host[239] typename "\"Host\""
par Aloha.host[239] arrrate 0.8
par Aloha.host[239] packet_size 1B
attr unit B
par Aloha.host[239] x 51.7179m
attr unit m
par Aloha.host[239] y 197.153m
attr unit m
par Aloha.host[239] txrate 1000Bps
attr unit Bps
par Aloha.host[240] typename "\"Host\""
par Aloha.host[240] arrrate 0.8
par Aloha.host[240] packet_size 1B
attr unit B
par Aloha.host[240] x 169.381m
attr unit m
par Aloha.host[240] y 74.6465m
attr unit m
par Aloha.host[240] txrate 1000Bps
attr unit Bps
par Aloha.host[241] typename "\"Host\""
par Aloha.host[241] arrrate 0.8
par Aloha.host[241] packet_size 1B
attr unit B
par Aloha.host[241] x 84.2507m
attr unit m
par Aloha.host[241] y 135.954m
attr unit m
par Aloha.host[241] txrate 1000Bps
attr unit Bps
par Aloha.host[242] typename "\"Host\""
par Aloha.host[242] arrrate 0.8
par Aloha.host[242] packet_size 1B
attr unit B
par Aloha.host[242] x 178.467m
attr unit m
par Aloha.host[242] y 24.4189m
attr unit m
par Aloha.host[242] txrate 1000Bps
attr unit Bps
par Aloha.host[243] typename "\"Host\""
par Aloha.host[243] arrrate 0.8
par Aloha.host[243] packet_size 1B
attr unit B
par Aloha.host[243] x 167.094m
attr unit m
par Aloha.host[243] y 18.5302m
attr unit m
par Aloha.host[243] txrate 1000Bps
attr unit Bps
par Aloha.host[244] typename "\"Host\""
par Aloha.host[244] arrrate 0.8
par Aloha.host[244] packet_size 1B
attr unit B
par Aloha.host[244] x 19.8695m
attr unit m
par Aloha.host[244] y 126.591m
attr unit m
par Aloha.host[244] txrate 1000Bps
attr unit Bps
par Aloha.host[245] typename "\"Host\""
par Aloha.host[245] arrrate 0.8
par Aloha.host[245] packet_size 1B
attr unit B
par Aloha.host[245] x 129.251m
attr unit m
par Aloha.host[245] y 56.176m
attr unit m
par Aloha.host[245] txrate 1000Bps
attr unit Bps
par Aloha.host[246] typename "\"Host\""
par Aloha.host[246] arrrate 0.8
par Aloha.host[246] packet_size 1B
attr unit B
par Aloha.host[246] x 62.0989m
attr unit m
par Aloha.host[246] y 54.2807m
attr unit m
par Aloha.host[246] txrate 1000Bps
attr unit Bps
par Aloha.host[247] typename "\"Host\""
par Aloha.host[247] arrrate 0.8
par Aloha.host[247] packet_size 1B
attr unit B
par Aloha.host[247] x 150.811m
attr unit m
par Aloha.host[247] y 178.044m
attr unit m
par Aloha.host[247] txrate 1000Bps
attr unit Bps
par Aloha.host[248] typename "\"Host\""
par Aloha.host[248] arrrate 0.8
par Aloha.host[248] packet_size 1B
attr unit B
par Aloha.host[248] x 108.526m
attr unit m
par Aloha.host[248] y 40.7018m
attr unit m
par Aloha.host[248] txrate 1000Bps
attr unit Bps
par Aloha.host[249] typename "\"Host\""
par Aloha.host[249] arrrate 0.8
par Aloha.host[249] packet_size 1B
attr unit B
par Aloha.host[249] x 91.5198m
attr unit m
par Aloha.host[249] y 58.2221m
attr unit m
par Aloha.host[249] txrate 1000Bps
attr unit Bps
par Aloha.host[250] typename "\"Host\""
par Aloha.host[250] arrrate 0.8
par Aloha.host[250] packet_size 1B
attr unit B
par Aloha.host[250] x 179.073m
attr unit m
par Aloha.host[250] y 109.446m
attr unit m
par Aloha.host[250] txrate 1000Bps
attr unit Bps
par Aloha.host[251] typename "\"Host\""
par Aloha.host[251] arrrate 0.8
par Aloha.host[251] packet_size 1B
attr unit B
par Aloha.host[251] x 11.4507m
attr unit m
par Aloha.host[251] y 143.258m
attr unit m
par Aloha.host[251] txrate 1000Bps
attr unit Bps
par Aloha.host[252] typename "\"Host\""
par Aloha.host[252] arrrate 0.8
par Aloha.host[252] packet_size 1B
attr unit B
par Aloha.host[252] x 111.464m
attr unit m
par Aloha.host[252] y 103.671m
attr unit m
par Aloha.host[252] txrate 1000Bps
attr unit Bps
par Aloha.host[253] typename "\"Host\""
par Aloha.host[253] arrrate 0.8
par Aloha.host[253] packet_size 1B
attr unit B
par Aloha.host[253] x 65.5822m
attr unit m
par Aloha.host[253] y 146.716m
attr unit m
par Aloha.host[253] txrate 1000Bps
attr unit Bps
par Aloha.host[254] typename "\"Host\""
par Aloha.host[254] arrrate 0.8
par Aloha.host[254] packet_size 1B
attr unit B
par Aloha.host[254] x 7.05467m
attr unit m
par Aloha.host[254] y 11.7946m
attr unit m
par Aloha.host[254] txrate 1000Bps
attr unit Bps
par Aloha.host[255] typename "\"Host\""
par Aloha.host[255] arrrate 0.8
par Aloha.host[255] packet_size 1B
attr unit B
par Aloha.host[255] x 150.704m
attr unit m
par Aloha.host[255] y 117.246m
attr unit m
par Aloha.host[255] txrate 1000Bps
attr unit Bps
par Aloha.host[256] typename "\"Host\""
par Aloha.host[256] arrrate 0.8
par Aloha.host[256] packet_size 1B
attr unit B
par Aloha.host[256] x 112.348m
attr unit m
par Aloha.host[256] y 116.559m
attr unit m
par Aloha.host[256] txrate 1000Bps
attr unit Bps
par Aloha.host[257] typename "\"Host\""
par Aloha.host[257] arrrate 0.8
par Aloha.host[257] packet_size 1B
attr unit B
par Aloha.host[257] x 178.829m
attr unit m
par Aloha.host[257] y 125.612m
attr unit m
par Aloha.host[257] txrate 1000Bps
attr unit Bps
par Aloha.host[258] typename "\"Host\""
par Aloha.host[258] arrrate 0.8
par Aloha.host[258] packet_size 1B
attr unit B
par Aloha.host[258] x 119.652m
attr unit m
par Aloha.host[258] y 143.036m
attr unit m
par Aloha.host[258] txrate 1000Bps
attr unit Bps
par Aloha.host[259] typename "\"Host\""
par Aloha.host[259] arrrate 0.8
par Aloha.host[259] packet_size 1B
attr unit B
par Aloha.host[259] x 67.4069m
attr unit m
par Aloha.host[259] y 48.6495m
attr unit m
par Aloha.host[259] txrate 1000Bps
attr unit Bps
par Aloha.host[260] typename "\"Host\""
par Aloha.host[260] arrrate 0.8
par Aloha.host[260] packet_size 1B
attr unit B
par Aloha.host[260] x 197.044m
attr unit m
par Aloha.host[260] y 145.197m
attr unit m
par Aloha.host[260] txrate 1000Bps
attr unit Bps
par Aloha.host[261] typename "\"Host\""
par Aloha.host[261] arrrate 0.8
par Aloha.host[261] packet_size 1B
attr unit B
par Aloha.host[261] x 23.1428m
attr unit m
par Aloha.host[261] y 194.092m
attr unit m
par Aloha.host[261] txrate 1000Bps
attr unit Bps
par Aloha.host[262] typename "\"Host\""
par Aloha.host[262] arrrate 0.8
par Aloha.host[262] packet_size 1B
attr unit B
par Aloha.host[262] x 10.5203m
attr unit m
par Aloha.host[262] y 75.5532m
attr unit m
par Aloha.host[262] txrate 1000Bps
attr unit Bps
par Aloha.host[263] typename "\"Host\""
par Aloha.host[263] arrrate 0.8
par Aloha.host[263] packet_size 1B
attr unit B
par Aloha.host[263] x 146.524m
attr unit m
par Aloha.host[263] y 33.936m
attr unit m
par Aloha.host[263] txrate 1000Bps
attr unit Bps
par Aloha.host[264] typename "\"Host\""
par Aloha.host[264] arrrate 0.8
par Aloha.host[264] packet_size 1B
attr unit B
par Aloha.host[264] x 74.175m
attr unit m
par Aloha.host[264] y 70.9727m
attr unit m
par Aloha.host[264] txrate 1000Bps
attr unit Bps
par Aloha.host[265] typename "\"Host\""
par Aloha.host[265] arrrate 0.8
par Aloha.host[265] packet_size 1B
attr unit B
par Aloha.host[265] x 72.293m
attr unit m
par Aloha.host[265] y 120.973m
attr unit m
par Aloha.host[265] txrate 1000Bps
attr unit Bps
par Aloha.host[266] typename "\"Host\""
par Aloha.host[266] arrrate 0.8
par Aloha.host[266] packet_size 1B
attr unit B
par Aloha.host[266] x 175.306m
attr unit m
par Aloha.host[266] y 112.594m
attr unit m
par Aloha.host[266] txrate 1000Bps
attr unit Bps
par Aloha.host[267] typename "\"Host\""
par Aloha.host[267] arrrate 0.8
par Aloha.host[267] packet_size 1B
attr unit B
par Aloha.host[267] x 65.4587m
attr unit m
par Aloha.host[267] y 124.826m
attr unit m
par Aloha.host[267] txrate 1000Bps
attr unit Bps
par Aloha.host[268] typename "\"Host\""
par Aloha.host[268] arrrate 0.8
par Aloha.host[268] packet_size 1B
attr unit B
par Aloha.host[268] x 177.798m
attr unit m
par Aloha.host[268] y 138.339m
attr unit m
par Aloha.host[268] txrate 1000Bps
attr unit Bps
par Aloha.host[269] typename "\"Host\""
par Aloha.host[269] arrrate 0.8
par Aloha.host[269] packet_size 1B
attr unit B
par Aloha.host[269] x 128.798m
attr unit m
par Aloha.host[269] y 86.3559m
attr unit m
par Aloha.host[269] txrate 1000Bps
attr unit Bps
par Aloha.host[270] typename "\"Host\""
par Aloha.host[270] arrrate 0.8
par Aloha.host[270] packet_size 1B
attr unit B
par Aloha.host[270] x 65.8099m
attr unit m
par Aloha.host[270] y 35.9835m
attr unit m
par Aloha.host[270] txrate 1000Bps
attr unit Bps
par Aloha.host[271] typename "\"Host\""
par Aloha.host[271] arrrate 0.8
par Aloha.host[271] packet_size 1B
attr unit B
par Aloha.host[271] x 11.9065m
attr unit m
par Aloha.host[271] y 123.41m
attr unit m
par Aloha.host[271] txrate 1000Bps
attr unit Bps
par Aloha.host[272] typename "\"Host\""
par Aloha.host[272] arrrate 0.8
par Aloha.host[272] packet_size 1B
attr unit B
par Aloha.host[272] x 49.0219m
attr unit m
par Aloha.host[272] y 84.5933m
attr unit m
par Aloha.host[272] txrate 1000Bps
attr unit Bps
par Aloha.host[273] typename "\"Host\""
par Aloha.host[273] arrrate 0.8
par Aloha.host[273] packet_size 1B
attr unit B
par Aloha.host[273] x 193.683m
attr unit m
par Aloha.host[273] y 126.506m
attr unit m
par Aloha.host[273] txrate 1000Bps
attr unit Bps
par Aloha.host[274] typename "\"Host\""
par Aloha.host[274] arrrate 0.8
par Aloha.host[274] packet_size 1B
attr unit B
par Aloha.host[274] x 81.0535m
attr unit m
par Aloha.host[274] y 180.825m
attr unit m
par Aloha.host[274] txrate 1000Bps
attr unit Bps
par Aloha.host[275] typename "\"Host\""
par Aloha.host[275] arrrate 0.8
par Aloha.host[275] packet_size 1B
attr unit B
par Aloha.host[275] x 32.0067m
attr unit m
par Aloha.host[275] y 119.834m
attr unit m
par Aloha.host[275] txrate 1000Bps
attr unit Bps
par Aloha.host[276] typename "\"Host\""
par Aloha.host[276] arrrate 0.8
par Aloha.host[276] packet_size 1B
attr unit B
par Aloha.host[276] x 59.6027m
attr unit m
par Aloha.host[276] y 44.3273m
attr unit m
par Aloha.host[276] txrate 1000Bps
attr unit Bps
par Aloha.host[277] typename "\"Host\""
par Aloha.host[277] arrrate 0.8
par Aloha.host[277] packet_size 1B
attr unit B
par Aloha.host[277] x 179.915m
attr unit m
par Aloha.host[277] y 40.5195m
attr unit m
par Aloha.host[277] txrate 1000Bps
attr unit Bps
par Aloha.host[278] typename "\"Host\""
par Aloha.host[278] arrrate 0.8
par Aloha.host[278] packet_size 1B
attr unit B
par Aloha.host[278] x 32.9953m
attr unit m
par Aloha.host[278] y 185.691m
attr unit m
par Aloha.host[278] txrate 1000Bps
attr unit Bps
par Aloha.host[279] typename "\"Host\""
par Aloha.host[279] arrrate 0.8
par Aloha.host[279] packet_size 1B
attr unit B
par Aloha.host[279] x 155.572m
attr unit m
par Aloha.host[279] y 167.318m
attr unit m
par Aloha.host[279] txrate 1000Bps
attr unit Bps
par Aloha.host[280] typename "\"Host\""
par Aloha.host[280] arrrate 0.8
par Aloha.host[280] packet_size 1B
attr unit B
par Aloha.host[280] x 26.9729m
attr unit m
par Aloha.host[280] y 82.7298m
attr unit m
par Aloha.host[280] txrate 1000Bps
attr unit Bps
par Aloha.host[281] typename "\"Host\""
par Aloha.host[281] arrrate 0.8
par Aloha.host[281] packet_size 1B
attr unit B
par Aloha.host[281] x 192.279m
attr unit m
par Aloha.host[281] y 186.224m
attr unit m
par Aloha.host[281] txrate 1000Bps
attr unit Bps
par Aloha.host[282] typename "\"Host\""
par Aloha.host[282] arrrate 0.8
par Aloha.host[282] packet_size 1B
attr unit B
par Aloha.host[282] x 106.041m
attr unit m
par Aloha.host[282] y 58.9145m
attr unit m
par Aloha.host[282] txrate 1000Bps
attr unit Bps
par Aloha.host[283] typename "\"Host\""
par Aloha.host[283] arrrate 0.8
par Aloha.host[283] packet_size 1B
attr unit B
par Aloha.host[283] x 8.63399m
attr unit m
par Aloha.host[283] y 134.761m
attr unit m
par Aloha.host[283] txrate 1000Bps
attr unit Bps
par Aloha.host[284] typename "\"Host\""
par Aloha.host[284] arrrate 0.8
par Aloha.host[284] packet_size 1B
attr unit B
par Aloha.host[284] x 186.191m
attr unit m
par Aloha.host[284] y 143.452m
attr unit m
par Aloha.host[284] txrate 1000Bps
attr unit Bps
par Aloha.host[285] typename "\"Host\""
par Aloha.host[285] arrrate 0.8
par Aloha.host[285] packet_size 1B
attr unit B
par Aloha.host[285] x 71.6451m
attr unit m
par Aloha.host[285] y 137.773m
attr unit m
par Aloha.host[285] txrate 1000Bps
attr unit Bps
par Aloha.host[286] typename "\"Host\""
par Aloha.host[286] arrrate 0.8
par Aloha.host[286] packet_size 1B
attr unit B
par Aloha.host[286] x 146.284m
attr unit m
par Aloha.host[286] y 52.9653m
attr unit m
par Aloha.host[286] txrate 1000Bps
attr unit Bps
par Aloha.host[287] typename "\"Host\""
par Aloha.host[287] arrrate 0.8
par Aloha.host[287] packet_size 1B
attr unit B
par Aloha.host[287] x 104.742m
attr unit m
par Aloha.host[287] y 176.363m
attr unit m
par Aloha.host[287] txrate 1000Bps
attr unit Bps
par Aloha.host[288] typename "\"Host\""
par Aloha.host[288] arrrate 0.8
par Aloha.host[288] packet_size 1B
attr unit B
par Aloha.host[288] x 18.5164m
attr unit m
par Aloha.host[288] y 54.4519m
attr unit m
par Aloha.host[288] txrate 1000Bps
attr unit Bps
par Aloha.host[289] typename "\"Host\""
par Aloha.host[289] arrrate 0.8
par Aloha.host[289] packet_size 1B
attr unit B
par Aloha.host[289] x 21.2118m
attr unit m
par Aloha.host[289] y 55.2352m
attr unit m
par Aloha.host[289] txrate 1000Bps
attr unit Bps
par Aloha.host[290] typename "\"Host\""
par Aloha.host[290] arrrate 0.8
par Aloha.host[290] packet_size 1B
attr unit B
par Aloha.host[290] x 29.845m
attr unit m
par Aloha.host[290] y 168.534m
attr unit m
par Aloha.host[290] txrate 1000Bps
attr unit Bps
par Aloha.host[291] typename "\"Host\""
par Aloha.host[291] arrrate 0.8
par Aloha.host[291] packet_size 1B
attr unit B
par Aloha.host[291] x 32.24m
attr unit m
par Aloha.host[291] y 198.133m
attr unit m
par Aloha.host[291] txrate 1000Bps
attr unit Bps
par Aloha.host[292] typename "\"Host\""
par Aloha.host[292] arrrate 0.8
par Aloha.host[292] packet_size 1B
attr unit B
par Aloha.host[292] x 10.5512m
attr unit m
par Aloha.host[292] y 138.402m
attr unit m
par Aloha.host[292] txrate 1000Bps
attr unit Bps
par Aloha.host[293] typename "\"Host\""
par Aloha.host[293] arrrate 0.8
par Aloha.host[293] packet_size 1B
attr unit B
par Aloha.host[293] x 9.40263m
attr unit m
par Aloha.host[293] y 39.361m
attr unit m
par Aloha.host[293] txrate 1000Bps
attr unit Bps
par Aloha.host[294] typename "\"Host\""
par Aloha.host[294] arrrate 0.8
par Aloha.host[294] packet_size 1B
attr unit B
par Aloha.host[294] x 189.686m
attr unit m
par Aloha.host[294] y 13.5825m
attr unit m
par Aloha.host[294] txrate 1000Bps
attr unit Bps
par Aloha.host[295] typename "\"Host\""
par Aloha.host[295] arrrate 0.8
par Aloha.host[295] packet_size 1B
attr unit B
par Aloha.host[295] x 18.2584m
attr unit m
par Aloha.host[295] y 127.492m
attr unit m
par Aloha.host[295] txrate 1000Bps
attr unit Bps
par Aloha.host[296] typename "\"Host\""
par Aloha.host[296] arrrate 0.8
par Aloha.host[296] packet_size 1B
attr unit B
par Aloha.host[296] x 101.67m
attr unit m
par Aloha.host[296] y 192.546m
attr unit m
par Aloha.host[296] txrate 1000Bps
attr unit Bps
par Aloha.host[297] typename "\"Host\""
par Aloha.host[297] arrrate 0.8
par Aloha.host[297] packet_size 1B
attr unit B
par Aloha.host[297] x 23.726m
attr unit m
par Aloha.host[297] y 192.718m
attr unit m
par Aloha.host[297] txrate 1000Bps
attr unit Bps
par Aloha.host[298] typename "\"Host\""
par Aloha.host[298] arrrate 0.8
par Aloha.host[298] packet_size 1B
attr unit B
par Aloha.host[298] x 42.9576m
attr unit m
par Aloha.host[298] y 78.247m
attr unit m
par Aloha.host[298] txrate 1000Bps
attr unit Bps
par Aloha.host[299] typename "\"Host\""
par Aloha.host[299] arrrate 0.8
par Aloha.host[299] packet_size 1B
attr unit B
par Aloha.host[299] x 152.614m
attr unit m
par Aloha.host[299] y 181.786m
attr unit m
par Aloha.host[299] txrate 1000Bps
attr unit Bps
par Aloha.host[300] typename "\"Host\""
par Aloha.host[300] arrrate 0.8
par Aloha.host[300] packet_size 1B
attr unit B
par Aloha.host[300] x 187.627m
attr unit m
par Aloha.host[300] y 47.2223m
attr unit m
par Aloha.host[300] txrate 1000Bps
attr unit Bps
par Aloha.host[301] typename "\"Host\""
par Aloha.host[301] arrrate 0.8
par Aloha.host[301] packet_size 1B
attr unit B
par Aloha.host[301] x 93.9425m
attr unit m
par Aloha.host[301] y 139.702m
attr unit m
par Aloha.host[301] txrate 1000Bps
attr unit Bps
par Aloha.host[302] typename "\"Host\""
par Aloha.host[302] arrrate 0.8
par Aloha.host[302] packet_size 1B
attr unit B
par Aloha.host[302] x 1.12839m
attr unit m
par Aloha.host[302] y 47.2977m
attr unit m
par Aloha.host[302] txrate 1000Bps
attr unit Bps
par Aloha.host[303] typename "\"Host\""
par Aloha.host[303] arrrate 0.8
par Aloha.host[303] packet_size 1B
attr unit B
par Aloha.host[303] x 199.842m
attr unit m
par Aloha.host[303] y 2.45764m
attr unit m
par Aloha.host[303] txrate 1000Bps
attr unit Bps
par Aloha.host[304] typename "\"Host\""
par Aloha.host[304] arrrate 0.8
par Aloha.host[304] packet_size 1B
attr unit B
par Aloha.host[304] x 9.55464m
attr unit m
par Aloha.host[304] y 13.1934m
attr unit m
par Aloha.host[304] txrate 1000Bps
attr unit Bps
par Aloha.host[305] typename "\"Host\""
par Aloha.host[305] arrrate 0.8
par Aloha.host[305] packet_size 1B
attr unit B
par Aloha.host[305] x 77.8896m
attr unit m
par Aloha.host[305] y 170.668m
attr unit m
par Aloha.host[305] txrate 1000Bps
attr unit Bps
par Aloha.host[306] typename "\"Host\""
par Aloha.host[306] arrrate 0.8
par Aloha.host[306] packet_size 1B
attr unit B
par Aloha.host[306] x 107.811m
attr unit m
par Aloha.host[306] y 125.733m
attr unit m
par Aloha.host[306] txrate 1000Bps
attr unit Bps
par Aloha.host[307] typename "\"Host\""
par Aloha.host[307] arrrate 0.8
par Aloha.host[307] packet_size 1B
attr unit B
par Aloha.host[307] x 178.347m
attr unit m
par Aloha.host[307] y 194.031m
attr unit m
par Aloha.host[307] txrate 1000Bps
attr unit Bps
par Aloha.host[308] typename "\"Host\""
par Aloha.host[308] arrrate 0.8
par Aloha.host[308] packet_size 1B
attr unit B
par Aloha.host[308] x 164.622m
attr unit m
par Aloha.host[308] y 103.272m
attr unit m
par Aloha.host[308] txrate 1000Bps
attr unit Bps
par Aloha.host[309] typename "\"Host\""
par Aloha.host[309] arrrate 0.8
par Aloha.host[309] packet_size 1B
attr unit B
par Aloha.host[309] x 121.877m
attr unit m
par Aloha.host[309] y 86.9122m
attr unit m
par Aloha.host[309] txrate 1000Bps
attr unit Bps
par Aloha.host[310] typename "\"Host\""
par Aloha.host[310] arrrate 0.8
par Aloha.host[310] packet_size 1B
attr unit B
par Aloha.host[310] x 79.7205m
attr unit m
par Aloha.host[310] y 174.075m
attr unit m
par Aloha.host[310] txrate 1000Bps
attr unit Bps
par Aloha.host[311] typename "\"Host\""
par Aloha.host[311] arrrate 0.8
par Aloha.host[311] packet_size 1B
attr unit B
par Aloha.host[311] x 166.896m
attr unit m
par Aloha.host[311] y 150.062m
attr unit m
par Aloha.host[311] txrate 1000Bps
attr unit Bps
par Aloha.host[312] typename "\"Host\""
par Aloha.host[312] arrrate 0.8
par Aloha.host[312] packet_size 1B
attr unit B
par Aloha.host[312] x 173.812m
attr unit m
par Aloha.host[312] y 21.8587m
attr unit m
par Aloha.host[312] txrate 1000Bps
attr unit Bps
par Aloha.host[313] typename "\"Host\""
par Aloha.host[313] arrrate 0.8
par Aloha.host[313] packet_size 1B
attr unit B
par Aloha.host[313] x 174.381m
attr unit m
par Aloha.host[313] y 139.206m
attr unit m
par Aloha.host[313] txrate 1000Bps
attr unit Bps
par Aloha.host[314] typename "\"Host\""
par Aloha.host[314] arrrate 0.8
par Aloha.host[314] packet_size 1B
attr unit B
par Aloha.host[314] x 143.527m
attr unit m
par Aloha.host[314] y 178.24m
attr unit m
par Aloha.host[314] txrate 1000Bps
attr unit Bps
[...]
par Aloha.host[922] packet_size 1B
attr unit B
par Aloha.host[922] x 102.252m
attr unit m
par Aloha.host[922] y 101.111m
attr unit m
par Aloha.host[922] txrate 1000Bps
attr unit Bps
par Aloha.host[923] typename "\"Host\""
par Aloha.host[923] arrrate 0.8
par Aloha.host[923] packet_size 1B
attr unit B
par Aloha.host[923] x 60.1837m
attr unit m
par Aloha.host[923] y 81.917m
attr unit m
par Aloha.host[923] txrate 1000Bps
attr unit Bps
par Aloha.host[924] typename "\"Host\""
par Aloha.host[924] arrrate 0.8
par Aloha.host[924] packet_size 1B
attr unit B
par Aloha.host[924] x 54.0768m
attr unit m
par Aloha.host[924] y 183.695m
attr unit m
par Aloha.host[924] txrate 1000Bps
attr unit Bps
par Aloha.host[925] typename "\"Host\""
par Aloha.host[925] arrrate 0.8
par Aloha.host[925] packet_size 1B
attr unit B
par Aloha.host[925] x 132.306m
attr unit m
par Aloha.host[925] y 127.726m
attr unit m
par Aloha.host[925] txrate 1000Bps
attr unit Bps
par Aloha.host[926] typename "\"Host\""
par Aloha.host[926] arrrate 0.8
par Aloha.host[926] packet_size 1B
attr unit B
par Aloha.host[926] x 159.047m
attr unit m
par Aloha.host[926] y 181m
attr unit m
par Aloha.host[926] txrate 1000Bps
attr unit Bps
par Aloha.host[927] typename "\"Host\""
par Aloha.host[927] arrrate 0.8
par Aloha.host[927] packet_size 1B
attr unit B
par Aloha.host[927] x 81.7663m
attr unit m
par Aloha.host[927] y 165.183m
attr unit m
par Aloha.host[927] txrate 1000Bps
attr unit Bps
par Aloha.host[928] typename "\"Host\""
par Aloha.host[928] arrrate 0.8
par Aloha.host[928] packet_size 1B
attr unit B
par Aloha.host[928] x 32.188m
attr unit m
par Aloha.host[928] y 78.3878m
attr unit m
par Aloha.host[928] txrate 1000Bps
attr unit Bps
par Aloha.host[929] typename "\"Host\""
par Aloha.host[929] arrrate 0.8
par Aloha.host[929] packet_size 1B
attr unit B
par Aloha.host[929] x 95.1591m
attr unit m
par Aloha.host[929] y 191.101m
attr unit m
par Aloha.host[929] txrate 1000Bps
attr unit Bps
par Aloha.host[930] typename "\"Host\""
par Aloha.host[930] arrrate 0.8
par Aloha.host[930] packet_size 1B
attr unit B
par Aloha.host[930] x 80.3201m
attr unit m
par Aloha.host[930] y 37.1209m
attr unit m
par Aloha.host[930] txrate 1000Bps
attr unit Bps
par Aloha.host[931] typename "\"Host\""
par Aloha.host[931] arrrate 0.8
par Aloha.host[931] packet_size 1B
attr unit B
par Aloha.host[931] x 87.1423m
attr unit m
par Aloha.host[931] y 127.358m
attr unit m
par Aloha.host[931] txrate 1000Bps
attr unit Bps
par Aloha.host[932] typename "\"Host\""
par Aloha.host[932] arrrate 0.8
par Aloha.host[932] packet_size 1B
attr unit B
par Aloha.host[932] x 47.9752m
attr unit m
par Aloha.host[932] y 37.6779m
attr unit m
par Aloha.host[932] txrate 1000Bps
attr unit Bps
par Aloha.host[933] typename "\"Host\""
par Aloha.host[933] arrrate 0.8
par Aloha.host[933] packet_size 1B
attr unit B
par Aloha.host[933] x 153.919m
attr unit m
par Aloha.host[933] y 71.7864m
attr unit m
par Aloha.host[933] txrate 1000Bps
attr unit Bps
par Aloha.host[934] typename "\"Host\""
par Aloha.host[934] arrrate 0.8
par Aloha.host[934] packet_size 1B
attr unit B
par Aloha.host[934] x 40.4455m
attr unit m
par Aloha.host[934] y 85.1121m
attr unit m
par Aloha.host[934] txrate 1000Bps
attr unit Bps
par Aloha.host[935] typename "\"Host\""
par Aloha.host[935] arrrate 0.8
par Aloha.host[935] packet_size 1B
attr unit B
par Aloha.host[935] x 7.7293m
attr unit m
par Aloha.host[935] y 154.551m
attr unit m
par Aloha.host[935] txrate 1000Bps
attr unit Bps
par Aloha.host[936] typename "\"Host\""
par Aloha.host[936] arrrate 0.8
par Aloha.host[936] packet_size 1B
attr unit B
par Aloha.host[936] x 140.023m
attr unit m
par Aloha.host[936] y 185.866m
attr unit m
par Aloha.host[936] txrate 1000Bps
attr unit Bps
par Aloha.host[937] typename "\"Host\""
par Aloha.host[937] arrrate 0.8
par Aloha.host[937] packet_size 1B
attr unit B
par Aloha.host[937] x 148.5m
attr unit m
par Aloha.host[937] y 3.6129m
attr unit m
par Aloha.host[937] txrate 1000Bps
attr unit Bps
par Aloha.host[938] typename "\"Host\""
par Aloha.host[938] arrrate 0.8
par Aloha.host[938] packet_size 1B
attr unit B
par Aloha.host[938] x 47.7519m
attr unit m
par Aloha.host[938] y 59.2178m
attr unit m
par Aloha.host[938] txrate 1000Bps
attr unit Bps
par Aloha.host[939] typename "\"Host\""
par Aloha.host[939] arrrate 0.8
par Aloha.host[939] packet_size 1B
attr unit B
par Aloha.host[939] x 34.6812m
attr unit m
par Aloha.host[939] y 128.046m
attr unit m
par Aloha.host[939] txrate 1000Bps
attr unit Bps
par Aloha.host[940] typename "\"Host\""
par Aloha.host[940] arrrate 0.8
par Aloha.host[940] packet_size 1B
attr unit B
par Aloha.host[940] x 116.106m
attr unit m
par Aloha.host[940] y 70.9674m
attr unit m
par Aloha.host[940] txrate 1000Bps
attr unit Bps
par Aloha.host[941] typename "\"Host\""
par Aloha.host[941] arrrate 0.8
par Aloha.host[941] packet_size 1B
attr unit B
par Aloha.host[941] x 183.926m
attr unit m
par Aloha.host[941] y 96.9479m
attr unit m
par Aloha.host[941] txrate 1000Bps
attr unit Bps
par Aloha.host[942] typename "\"Host\""
par Aloha.host[942] arrrate 0.8
par Aloha.host[942] packet_size 1B
attr unit B
par Aloha.host[942] x 50.7967m
attr unit m
par Aloha.host[942] y 20.3448m
attr unit m
par Aloha.host[942] txrate 1000Bps
attr unit Bps
par Aloha.host[943] typename "\"Host\""
par Aloha.host[943] arrrate 0.8
par Aloha.host[943] packet_size 1B
attr unit B
par Aloha.host[943] x 108.001m
attr unit m
par Aloha.host[943] y 64.7979m
attr unit m
par Aloha.host[943] txrate 1000Bps
attr unit Bps
par Aloha.host[944] typename "\"Host\""
par Aloha.host[944] arrrate 0.8
par Aloha.host[944] packet_size 1B
attr unit B
par Aloha.host[944] x 52.8756m
attr unit m
par Aloha.host[944] y 198.087m
attr unit m
par Aloha.host[944] txrate 1000Bps
attr unit Bps
par Aloha.host[945] typename "\"Host\""
par Aloha.host[945] arrrate 0.8
par Aloha.host[945] packet_size 1B
attr unit B
par Aloha.host[945] x 148.33m
attr unit m
par Aloha.host[945] y 33.6743m
attr unit m
par Aloha.host[945] txrate 1000Bps
attr unit Bps
par Aloha.host[946] typename "\"Host\""
par Aloha.host[946] arrrate 0.8
par Aloha.host[946] packet_size 1B
attr unit B
par Aloha.host[946] x 93.4193m
attr unit m
par Aloha.host[946] y 60.7569m
attr unit m
par Aloha.host[946] txrate 1000Bps
attr unit Bps
par Aloha.host[947] typename "\"Host\""
par Aloha.host[947] arrrate 0.8
par Aloha.host[947] packet_size 1B
attr unit B
par Aloha.host[947] x 75.7913m
attr unit m
par Aloha.host[947] y 35.1969m
attr unit m
par Aloha.host[947] txrate 1000Bps
attr unit Bps
par Aloha.host[948] typename "\"Host\""
par Aloha.host[948] arrrate 0.8
par Aloha.host[948] packet_size 1B
attr unit B
par Aloha.host[948] x 131.228m
attr unit m
par Aloha.host[948] y 66.7169m
attr unit m
par Aloha.host[948] txrate 1000Bps
attr unit Bps
par Aloha.host[949] typename "\"Host\""
par Aloha.host[949] arrrate 0.8
par Aloha.host[949] packet_size 1B
attr unit B
par Aloha.host[949] x 106.284m
attr unit m
par Aloha.host[949] y 74.1567m
attr unit m
par Aloha.host[949] txrate 1000Bps
attr unit Bps
par Aloha.host[950] typename "\"Host\""
par Aloha.host[950] arrrate 0.8
par Aloha.host[950] packet_size 1B
attr unit B
par Aloha.host[950] x 40.2299m
attr unit m
par Aloha.host[950] y 172.461m
attr unit m
par Aloha.host[950] txrate 1000Bps
attr unit Bps
par Aloha.host[951] typename "\"Host\""
par Aloha.host[951] arrrate 0.8
par Aloha.host[951] packet_size 1B
attr unit B
par Aloha.host[951] x 83.2424m
attr unit m
par Aloha.host[951] y 110.714m
attr unit m
par Aloha.host[951] txrate 1000Bps
attr unit Bps
par Aloha.host[952] typename "\"Host\""
par Aloha.host[952] arrrate 0.8
par Aloha.host[952] packet_size 1B
attr unit B
par Aloha.host[952] x 191.299m
attr unit m
par Aloha.host[952] y 95.8532m
attr unit m
par Aloha.host[952] txrate 1000Bps
attr unit Bps
par Aloha.host[953] typename "\"Host\""
par Aloha.host[953] arrrate 0.8
par Aloha.host[953] packet_size 1B
attr unit B
par Aloha.host[953] x 160.227m
attr unit m
par Aloha.host[953] y 50.6099m
attr unit m
par Aloha.host[953] txrate 1000Bps
attr unit Bps
par Aloha.host[954] typename "\"Host\""
par Aloha.host[954] arrrate 0.8
par Aloha.host[954] packet_size 1B
attr unit B
par Aloha.host[954] x 102.422m
attr unit m
par Aloha.host[954] y 77.9284m
attr unit m
par Aloha.host[954] txrate 1000Bps
attr unit Bps
par Aloha.host[955] typename "\"Host\""
par Aloha.host[955] arrrate 0.8
par Aloha.host[955] packet_size 1B
attr unit B
par Aloha.host[955] x 132.093m
attr unit m
par Aloha.host[955] y 9.67158m
attr unit m
par Aloha.host[955] txrate 1000Bps
attr unit Bps
par Aloha.host[956] typename "\"Host\""
par Aloha.host[956] arrrate 0.8
par Aloha.host[956] packet_size 1B
attr unit B
par Aloha.host[956] x 28.4743m
attr unit m
par Aloha.host[956] y 23.8949m
attr unit m
par Aloha.host[956] txrate 1000Bps
attr unit Bps
par Aloha.host[957] typename "\"Host\""
par Aloha.host[957] arrrate 0.8
par Aloha.host[957] packet_size 1B
attr unit B
par Aloha.host[957] x 82.6387m
attr unit m
par Aloha.host[957] y 150.109m
attr unit m
par Aloha.host[957] txrate 1000Bps
attr unit Bps
par Aloha.host[958] typename "\"Host\""
par Aloha.host[958] arrrate 0.8
par Aloha.host[958] packet_size 1B
attr unit B
par Aloha.host[958] x 178.963m
attr unit m
par Aloha.host[958] y 17.8186m
attr unit m
par Aloha.host[958] txrate 1000Bps
attr unit Bps
par Aloha.host[959] typename "\"Host\""
par Aloha.host[959] arrrate 0.8
par Aloha.host[959] packet_size 1B
attr unit B
par Aloha.host[959] x 37.6241m
attr unit m
par Aloha.host[959] y 180.552m
attr unit m
par Aloha.host[959] txrate 1000Bps
attr unit Bps
par Aloha.host[960] typename "\"Host\""
par Aloha.host[960] arrrate 0.8
par Aloha.host[960] packet_size 1B
attr unit B
par Aloha.host[960] x 196.384m
attr unit m
par Aloha.host[960] y 118.24m
attr unit m
par Aloha.host[960] txrate 1000Bps
attr unit Bps
par Aloha.host[961] typename "\"Host\""
par Aloha.host[961] arrrate 0.8
par Aloha.host[961] packet_size 1B
attr unit B
par Aloha.host[961] x 169.622m
attr unit m
par Aloha.host[961] y 178.5m
attr unit m
par Aloha.host[961] txrate 1000Bps
attr unit Bps
par Aloha.host[962] typename "\"Host\""
par Aloha.host[962] arrrate 0.8
par Aloha.host[962] packet_size 1B
attr unit B
par Aloha.host[962] x 137.226m
attr unit m
par Aloha.host[962] y 92.9224m
attr unit m
par Aloha.host[962] txrate 1000Bps
attr unit Bps
par Aloha.host[963] typename "\"Host\""
par Aloha.host[963] arrrate 0.8
par Aloha.host[963] packet_size 1B
attr unit B
par Aloha.host[963] x 74.7248m
attr unit m
par Aloha.host[963] y 142.697m
attr unit m
par Aloha.host[963] txrate 1000Bps
attr unit Bps
par Aloha.host[964] typename "\"Host\""
par Aloha.host[964] arrrate 0.8
par Aloha.host[964] packet_size 1B
attr unit B
par Aloha.host[964] x 18.4155m
attr unit m
par Aloha.host[964] y 152.513m
attr unit m
par Aloha.host[964] txrate 1000Bps
attr unit Bps
par Aloha.host[965] typename "\"Host\""
par Aloha.host[965] arrrate 0.8
par Aloha.host[965] packet_size 1B
attr unit B
par Aloha.host[965] x 58.9368m
attr unit m
par Aloha.host[965] y 97.2001m
attr unit m
par Aloha.host[965] txrate 1000Bps
attr unit Bps
par Aloha.host[966] typename "\"Host\""
par Aloha.host[966] arrrate 0.8
par Aloha.host[966] packet_size 1B
attr unit B
par Aloha.host[966] x 148.199m
attr unit m
par Aloha.host[966] y 52.9471m
attr unit m
par Aloha.host[966] txrate 1000Bps
attr unit Bps
par Aloha.host[967] typename "\"Host\""
par Aloha.host[967] arrrate 0.8
par Aloha.host[967] packet_size 1B
attr unit B
par Aloha.host[967] x 84.3243m
attr unit m
par Aloha.host[967] y 127.533m
attr unit m
par Aloha.host[967] txrate 1000Bps
attr unit Bps
par Aloha.host[968] typename "\"Host\""
par Aloha.host[968] arrrate 0.8
par Aloha.host[968] packet_size 1B
attr unit B
par Aloha.host[968] x 160.577m
attr unit m
par Aloha.host[968] y 55.1251m
attr unit m
par Aloha.host[968] txrate 1000Bps
attr unit Bps
par Aloha.host[969] typename "\"Host\""
par Aloha.host[969] arrrate 0.8
par Aloha.host[969] packet_size 1B
attr unit B
par Aloha.host[969] x 43.1593m
attr unit m
par Aloha.host[969] y 154.558m
attr unit m
par Aloha.host[969] txrate 1000Bps
attr unit Bps
par Aloha.host[970] typename "\"Host\""
par Aloha.host[970] arrrate 0.8
par Aloha.host[970] packet_size 1B
attr unit B
par Aloha.host[970] x 164.749m
attr unit m
par Aloha.host[970] y 5.91783m
attr unit m
par Aloha.host[970] txrate 1000Bps
attr unit Bps
par Aloha.host[971] typename "\"Host\""
par Aloha.host[971] arrrate 0.8
par Aloha.host[971] packet_size 1B
attr unit B
par Aloha.host[971] x 172.022m
attr unit m
par Aloha.host[971] y 108.505m
attr unit m
par Aloha.host[971] txrate 1000Bps
attr unit Bps
par Aloha.host[972] typename "\"Host\""
par Aloha.host[972] arrrate 0.8
par Aloha.host[972] packet_size 1B
attr unit B
par Aloha.host[972] x 144.439m
attr unit m
par Aloha.host[972] y 93.95m
attr unit m
par Aloha.host[972] txrate 1000Bps
attr unit Bps
par Aloha.host[973] typename "\"Host\""
par Aloha.host[973] arrrate 0.8
par Aloha.host[973] packet_size 1B
attr unit B
par Aloha.host[973] x 40.8028m
attr unit m
par Aloha.host[973] y 145.268m
attr unit m
par Aloha.host[973] txrate 1000Bps
attr unit Bps
par Aloha.host[974] typename "\"Host\""
par Aloha.host[974] arrrate 0.8
par Aloha.host[974] packet_size 1B
attr unit B
par Aloha.host[974] x 44.5783m
attr unit m
par Aloha.host[974] y 159.742m
attr unit m
par Aloha.host[974] txrate 1000Bps
attr unit Bps
par Aloha.host[975] typename "\"Host\""
par Aloha.host[975] arrrate 0.8
par Aloha.host[975] packet_size 1B
attr unit B
par Aloha.host[975] x 12.8589m
attr unit m
par Aloha.host[975] y 179.973m
attr unit m
par Aloha.host[975] txrate 1000Bps
attr unit Bps
par Aloha.host[976] typename "\"Host\""
par Aloha.host[976] arrrate 0.8
par Aloha.host[976] packet_size 1B
attr unit B
par Aloha.host[976] x 10.2603m
attr unit m
par Aloha.host[976] y 39.2804m
attr unit m
par Aloha.host[976] txrate 1000Bps
attr unit Bps
par Aloha.host[977] typename "\"Host\""
par Aloha.host[977] arrrate 0.8
par Aloha.host[977] packet_size 1B
attr unit B
par Aloha.host[977] x 147.814m
attr unit m
par Aloha.host[977] y 173.099m
attr unit m
par Aloha.host[977] txrate 1000Bps
attr unit Bps
par Aloha.host[978] typename "\"Host\""
par Aloha.host[978] arrrate 0.8
par Aloha.host[978] packet_size 1B
attr unit B
par Aloha.host[978] x 98.3033m
attr unit m
par Aloha.host[978] y 156.414m
attr unit m
par Aloha.host[978] txrate 1000Bps
attr unit Bps
par Aloha.host[979] typename "\"Host\""
par Aloha.host[979] arrrate 0.8
par Aloha.host[979] packet_size 1B
attr unit B
par Aloha.host[979] x 152.302m
attr unit m
par Aloha.host[979] y 120.085m
attr unit m
par Aloha.host[979] txrate 1000Bps
attr unit Bps
par Aloha.host[980] typename "\"Host\""
par Aloha.host[980] arrrate 0.8
par Aloha.host[980] packet_size 1B
attr unit B
par Aloha.host[980] x 56.5492m
attr unit m
par Aloha.host[980] y 156.126m
attr unit m
par Aloha.host[980] txrate 1000Bps
attr unit Bps
par Aloha.host[981] typename "\"Host\""
par Aloha.host[981] arrrate 0.8
par Aloha.host[981] packet_size 1B
attr unit B
par Aloha.host[981] x 69.0534m
attr unit m
par Aloha.host[981] y 51.8165m
attr unit m
par Aloha.host[981] txrate 1000Bps
attr unit Bps
par Aloha.host[982] typename "\"Host\""
par Aloha.host[982] arrrate 0.8
par Aloha.host[982] packet_size 1B
attr unit B
par Aloha.host[982] x 178.941m
attr unit m
par Aloha.host[982] y 184.635m
attr unit m
par Aloha.host[982] txrate 1000Bps
attr unit Bps
par Aloha.host[983] typename "\"Host\""
par Aloha.host[983] arrrate 0.8
par Aloha.host[983] packet_size 1B
attr unit B
par Aloha.host[983] x 199.477m
attr unit m
par Aloha.host[983] y 195.079m
attr unit m
par Aloha.host[983] txrate 1000Bps
attr unit Bps
par Aloha.host[984] typename "\"Host\""
par Aloha.host[984] arrrate 0.8
par Aloha.host[984] packet_size 1B
attr unit B
par Aloha.host[984] x 20.3512m
attr unit m
par Aloha.host[984] y 81.9983m
attr unit m
par Aloha.host[984] txrate 1000Bps
attr unit Bps
par Aloha.host[985] typename "\"Host\""
par Aloha.host[985] arrrate 0.8
par Aloha.host[985] packet_size 1B
attr unit B
par Aloha.host[985] x 155.85m
attr unit m
par Aloha.host[985] y 65.3144m
attr unit m
par Aloha.host[985] txrate 1000Bps
attr unit Bps
par Aloha.host[986] typename "\"Host\""
par Aloha.host[986] arrrate 0.8
par Aloha.host[986] packet_size 1B
attr unit B
par Aloha.host[986] x 111.23m
attr unit m
par Aloha.host[986] y 109.647m
attr unit m
par Aloha.host[986] txrate 1000Bps
attr unit Bps
par Aloha.host[987] typename "\"Host\""
par Aloha.host[987] arrrate 0.8
par Aloha.host[987] packet_size 1B
attr unit B
par Aloha.host[987] x 0.909759m
attr unit m
par Aloha.host[987] y 16.0063m
attr unit m
par Aloha.host[987] txrate 1000Bps
attr unit Bps
par Aloha.host[988] typename "\"Host\""
par Aloha.host[988] arrrate 0.8
par Aloha.host[988] packet_size 1B
attr unit B
par Aloha.host[988] x 123.31m
attr unit m
par Aloha.host[988] y 140.338m
attr unit m
par Aloha.host[988] txrate 1000Bps
attr unit Bps
par Aloha.host[989] typename "\"Host\""
par Aloha.host[989] arrrate 0.8
par Aloha.host[989] packet_size 1B
attr unit B
par Aloha.host[989] x 55.9856m
attr unit m
par Aloha.host[989] y 65.7307m
attr unit m
par Aloha.host[989] txrate 1000Bps
attr unit Bps
par Aloha.host[990] typename "\"Host\""
par Aloha.host[990] arrrate 0.8
par Aloha.host[990] packet_size 1B
attr unit B
par Aloha.host[990] x 70.1126m
attr unit m
par Aloha.host[990] y 63.5584m
attr unit m
par Aloha.host[990] txrate 1000Bps
attr unit Bps
par Aloha.host[991] typename "\"Host\""
par Aloha.host[991] arrrate 0.8
par Aloha.host[991] packet_size 1B
attr unit B
par Aloha.host[991] x 193.856m
attr unit m
par Aloha.host[991] y 11.1357m
attr unit m
par Aloha.host[991] txrate 1000Bps
attr unit Bps
par Aloha.host[992] typename "\"Host\""
par Aloha.host[992] arrrate 0.8
par Aloha.host[992] packet_size 1B
attr unit B
par Aloha.host[992] x 148.536m
attr unit m
par Aloha.host[992] y 35.4591m
attr unit m
par Aloha.host[992] txrate 1000Bps
attr unit Bps
par Aloha.host[993] typename "\"Host\""
par Aloha.host[993] arrrate 0.8
par Aloha.host[993] packet_size 1B
attr unit B
par Aloha.host[993] x 10.9043m
attr unit m
par Aloha.host[993] y 23.6495m
attr unit m
par Aloha.host[993] txrate 1000Bps
attr unit Bps
par Aloha.host[994] typename "\"Host\""
par Aloha.host[994] arrrate 0.8
par Aloha.host[994] packet_size 1B
attr unit B
par Aloha.host[994] x 136.195m
attr unit m
par Aloha.host[994] y 62.409m
attr unit m
par Aloha.host[994] txrate 1000Bps
attr unit Bps
par Aloha.host[995] typename "\"Host\""
par Aloha.host[995] arrrate 0.8
par Aloha.host[995] packet_size 1B
attr unit B
par Aloha.host[995] x 2.59913m
attr unit m
par Aloha.host[995] y 143.524m
attr unit m
par Aloha.host[995] txrate 1000Bps
attr unit Bps
par Aloha.host[996] typename "\"Host\""
par Aloha.host[996] arrrate 0.8
par Aloha.host[996] packet_size 1B
attr unit B
par Aloha.host[996] x 177.239m
attr unit m
par Aloha.host[996] y 193.569m
attr unit m
par Aloha.host[996] txrate 1000Bps
attr unit Bps
par Aloha.host[997] typename "\"Host\""
par Aloha.host[997] arrrate 0.8
par Aloha.host[997] packet_size 1B
attr unit B
par Aloha.host[997] x 119.337m
attr unit m
par Aloha.host[997] y 142.074m
attr unit m
par Aloha.host[997] txrate 1000Bps
attr unit Bps
par Aloha.host[998] typename "\"Host\""
par Aloha.host[998] arrrate 0.8
par Aloha.host[998] packet_size 1B
attr unit B
par Aloha.host[998] x 126.164m
attr unit m
par Aloha.host[998] y 3.97856m
attr unit m
par Aloha.host[998] txrate 1000Bps
attr unit Bps
par Aloha.host[999] typename "\"Host\""
par Aloha.host[999] arrrate 0.8
par Aloha.host[999] packet_size 1B
attr unit B
par Aloha.host[999] x 3.28975m
attr unit m
par Aloha.host[999] y 57.4295m
attr unit m
par Aloha.host[999] txrate 1000Bps
attr unit Bps
par Aloha.server typename "\"Server\""
par Aloha.server x 16.7572m
attr unit m
par Aloha.server y 23.913m
attr unit m
scalar Aloha.server prob_succ 0.20206848094716
scalar Aloha.server uti 16.162853
par Aloha typename "\"Aloha\""
par Aloha numHosts 1000

