version 3
run General-5-20220605-16:52:25-732257
attr configname General
attr datetime 20220605-16:52:25
attr datetimef 20220605-165225
attr experiment General
attr inifile aloha.ini
attr iterationvars $0=0.6
attr iterationvarsd 0.6
attr iterationvarsf 0.6-
attr measurement $0=0.6
attr network Aloha
attr processid 732257
attr repetition 0
attr replication #0
attr resultdir results
attr runnumber 5
attr seedset 5
config network Aloha
config cmdenv-performance-display false
config sim-time-limit 100000s
config **.x "uniform(0m, 200m)"
config **.y "uniform(0m, 200m)"
config *.numHosts 1000
config **.packet_size 1B
config **.txrate 1000Bps
config **.arrrate 0.6

par Aloha.host[0] typename "\"Host\""
par Aloha.host[0] arrrate 0.6
par Aloha.host[0] packet_size 1B
attr unit B
par Aloha.host[0] x 44.3986m
attr unit m
par Aloha.host[0] y 11.036m
attr unit m
par Aloha.host[0] txrate 1000Bps
attr unit Bps
par Aloha.host[1] typename "\"Host\""
par Aloha.host[1] arrrate 0.6
par Aloha.host[1] packet_size 1B
attr unit B
par Aloha.host[1] x 174.146m
attr unit m
par Aloha.host[1] y 166.266m
attr unit m
par Aloha.host[1] txrate 1000Bps
attr unit Bps
par Aloha.host[2] typename "\"Host\""
par Aloha.host[2] arrrate 0.6
par Aloha.host[2] packet_size 1B
attr unit B
par Aloha.host[2] x 41.3438m
attr unit m
par Aloha.host[2] y 72.7474m
attr unit m
par Aloha.host[2] txrate 1000Bps
attr unit Bps
par Aloha.host[3] typename "\"Host\""
par Aloha.host[3] arrrate 0.6
par Aloha.host[3] packet_size 1B
attr unit B
par Aloha.host[3] x 183.722m
attr unit m
par Aloha.host[3] y 195.889m
attr unit m
par Aloha.host[3] txrate 1000Bps
attr unit Bps
par Aloha.host[4] typename "\"Host\""
par Aloha.host[4] arrrate 0.6
par Aloha.host[4] packet_size 1B
attr unit B
par Aloha.host[4] x 97.6822m
attr unit m
par Aloha.host[4] y 17.9642m
attr unit m
par Aloha.host[4] txrate 1000Bps
attr unit Bps
par Aloha.host[5] typename "\"Host\""
par Aloha.host[5] arrrate 0.6
par Aloha.host[5] packet_size 1B
attr unit B
par Aloha.host[5] x 122.349m
attr unit m
par Aloha.host[5] y 79.3473m
attr unit m
par Aloha.host[5] txrate 1000Bps
attr unit Bps
par Aloha.host[6] typename "\"Host\""
par Aloha.host[6] arrrate 0.6
par Aloha.host[6] packet_size 1B
attr unit B
par Aloha.host[6] x 153.182m
attr unit m
par Aloha.host[6] y 70.8276m
attr unit m
par Aloha.host[6] txrate 1000Bps
attr unit Bps
par Aloha.host[7] typename "\"Host\""
par Aloha.host[7] arrrate 0.6
par Aloha.host[7] packet_size 1B
attr unit B
par Aloha.host[7] x 103.684m
attr unit m
par Aloha.host[7] y 97.3276m
attr unit m
par Aloha.host[7] txrate 1000Bps
attr unit Bps
par Aloha.host[8] typename "\"Host\""
par Aloha.host[8] arrrate 0.6
par Aloha.host[8] packet_size 1B
attr unit B
par Aloha.host[8] x 59.3601m
attr unit m
par Aloha.host[8] y 198.164m
attr unit m
par Aloha.host[8] txrate 1000Bps
attr unit Bps
par Aloha.host[9] typename "\"Host\""
par Aloha.host[9] arrrate 0.6
par Aloha.host[9] packet_size 1B
attr unit B
par Aloha.host[9] x 37.5442m
attr unit m
par Aloha.host[9] y 161.656m
attr unit m
par Aloha.host[9] txrate 1000Bps
attr unit Bps
par Aloha.host[10] typename "\"Host\""
par Aloha.host[10] arrrate 0.6
par Aloha.host[10] packet_size 1B
attr unit B
par Aloha.host[10] x 16.1483m
attr unit m
par Aloha.host[10] y 129.892m
attr unit m
par Aloha.host[10] txrate 1000Bps
attr unit Bps
par Aloha.host[11] typename "\"Host\""
par Aloha.host[11] arrrate 0.6
par Aloha.host[11] packet_size 1B
attr unit B
par Aloha.host[11] x 147.688m
attr unit m
par Aloha.host[11] y 163.895m
attr unit m
par Aloha.host[11] txrate 1000Bps
attr unit Bps
par Aloha.host[12] typename "\"Host\""
par Aloha.host[12] arrrate 0.6
par Aloha.host[12] packet_size 1B
attr unit B
par Aloha.host[12] x 88.2618m
attr unit m
par Aloha.host[12] y 48.5081m
attr unit m
par Aloha.host[12] txrate 1000Bps
attr unit Bps
par Aloha.host[13] typename "\"Host\""
par Aloha.host[13] arrrate 0.6
par Aloha.host[13] packet_size 1B
attr unit B
par Aloha.host[13] x 31.662m
attr unit m
par Aloha.host[13] y 152.875m
attr unit m
par Aloha.host[13] txrate 1000Bps
attr unit Bps
par Aloha.host[14] typename "\"Host\""
par Aloha.host[14] arrrate 0.6
par Aloha.host[14] packet_size 1B
attr unit B
par Aloha.host[14] x 175.987m
attr unit m
par Aloha.host[14] y 22.1802m
attr unit m
par Aloha.host[14] txrate 1000Bps
attr unit Bps
par Aloha.host[15] typename "\"Host\""
par Aloha.host[15] arrrate 0.6
par Aloha.host[15] packet_size 1B
attr unit B
par Aloha.host[15] x 54.8173m
attr unit m
par Aloha.host[15] y 40.8309m
attr unit m
par Aloha.host[15] txrate 1000Bps
attr unit Bps
par Aloha.host[16] typename "\"Host\""
par Aloha.host[16] arrrate 0.6
par Aloha.host[16] packet_size 1B
attr unit B
par Aloha.host[16] x 82.847m
attr unit m
par Aloha.host[16] y 23.8191m
attr unit m
par Aloha.host[16] txrate 1000Bps
attr unit Bps
par Aloha.host[17] typename "\"Host\""
par Aloha.host[17] arrrate 0.6
par Aloha.host[17] packet_size 1B
attr unit B
par Aloha.host[17] x 59.216m
attr unit m
par Aloha.host[17] y 175.581m
attr unit m
par Aloha.host[17] txrate 1000Bps
attr unit Bps
par Aloha.host[18] typename "\"Host\""
par Aloha.host[18] arrrate 0.6
par Aloha.host[18] packet_size 1B
attr unit B
par Aloha.host[18] x 125.758m
attr unit m
par Aloha.host[18] y 104.735m
attr unit m
par Aloha.host[18] txrate 1000Bps
attr unit Bps
par Aloha.host[19] typename "\"Host\""
par Aloha.host[19] arrrate 0.6
par Aloha.host[19] packet_size 1B
attr unit B
par Aloha.host[19] x 115.968m
attr unit m
par Aloha.host[19] y 98.4272m
attr unit m
par Aloha.host[19] txrate 1000Bps
attr unit Bps
par Aloha.host[20] typename "\"Host\""
par Aloha.host[20] arrrate 0.6
par Aloha.host[20] packet_size 1B
attr unit B
par Aloha.host[20] x 119.986m
attr unit m
par Aloha.host[20] y 146.374m
attr unit m
par Aloha.host[20] txrate 1000Bps
attr unit Bps
par Aloha.host[21] typename "\"Host\""
par Aloha.host[21] arrrate 0.6
par Aloha.host[21] packet_size 1B
attr unit B
par Aloha.host[21] x 53.1638m
attr unit m
par Aloha.host[21] y 2.91615m
attr unit m
par Aloha.host[21] txrate 1000Bps
attr unit Bps
par Aloha.host[22] typename "\"Host\""
par Aloha.host[22] arrrate 0.6
par Aloha.host[22] packet_size 1B
attr unit B
par Aloha.host[22] x 56.9372m
attr unit m
par Aloha.host[22] y 18.6726m
attr unit m
par Aloha.host[22] txrate 1000Bps
attr unit Bps
par Aloha.host[23] typename "\"Host\""
par Aloha.host[23] arrrate 0.6
par Aloha.host[23] packet_size 1B
attr unit B
par Aloha.host[23] x 50.7176m
attr unit m
par Aloha.host[23] y 165.311m
attr unit m
par Aloha.host[23] txrate 1000Bps
attr unit Bps
par Aloha.host[24] typename "\"Host\""
par Aloha.host[24] arrrate 0.6
par Aloha.host[24] packet_size 1B
attr unit B
par Aloha.host[24] x 65.5128m
attr unit m
par Aloha.host[24] y 166.699m
attr unit m
par Aloha.host[24] txrate 1000Bps
attr unit Bps
par Aloha.host[25] typename "\"Host\""
par Aloha.host[25] arrrate 0.6
par Aloha.host[25] packet_size 1B
attr unit B
par Aloha.host[25] x 28.8329m
attr unit m
par Aloha.host[25] y 178.482m
attr unit m
par Aloha.host[25] txrate 1000Bps
attr unit Bps
par Aloha.host[26] typename "\"Host\""
par Aloha.host[26] arrrate 0.6
par Aloha.host[26] packet_size 1B
attr unit B
par Aloha.host[26] x 33.1226m
attr unit m
par Aloha.host[26] y 191.603m
attr unit m
par Aloha.host[26] txrate 1000Bps
attr unit Bps
par Aloha.host[27] typename "\"Host\""
par Aloha.host[27] arrrate 0.6
par Aloha.host[27] packet_size 1B
attr unit B
par Aloha.host[27] x 192.786m
attr unit m
par Aloha.host[27] y 112.267m
attr unit m
par Aloha.host[27] txrate 1000Bps
attr unit Bps
par Aloha.host[28] typename "\"Host\""
par Aloha.host[28] arrrate 0.6
par Aloha.host[28] packet_size 1B
attr unit B
par Aloha.host[28] x 192.045m
attr unit m
par Aloha.host[28] y 18.1097m
attr unit m
par Aloha.host[28] txrate 1000Bps
attr unit Bps
par Aloha.host[29] typename "\"Host\""
par Aloha.host[29] arrrate 0.6
par Aloha.host[29] packet_size 1B
attr unit B
par Aloha.host[29] x 37.6829m
attr unit m
par Aloha.host[29] y 199.198m
attr unit m
par Aloha.host[29] txrate 1000Bps
attr unit Bps
par Aloha.host[30] typename "\"Host\""
par Aloha.host[30] arrrate 0.6
par Aloha.host[30] packet_size 1B
attr unit B
par Aloha.host[30] x 4.86131m
attr unit m
par Aloha.host[30] y 95.4803m
attr unit m
par Aloha.host[30] txrate 1000Bps
attr unit Bps
par Aloha.host[31] typename "\"Host\""
par Aloha.host[31] arrrate 0.6
par Aloha.host[31] packet_size 1B
attr unit B
par Aloha.host[31] x 40.9111m
attr unit m
par Aloha.host[31] y 136.983m
attr unit m
par Aloha.host[31] txrate 1000Bps
attr unit Bps
par Aloha.host[32] typename "\"Host\""
par Aloha.host[32] arrrate 0.6
par Aloha.host[32] packet_size 1B
attr unit B
par Aloha.host[32] x 139.969m
attr unit m
par Aloha.host[32] y 168.675m
attr unit m
par Aloha.host[32] txrate 1000Bps
attr unit Bps
par Aloha.host[33] typename "\"Host\""
par Aloha.host[33] arrrate 0.6
par Aloha.host[33] packet_size 1B
attr unit B
par Aloha.host[33] x 155.903m
attr unit m
par Aloha.host[33] y 123.225m
attr unit m
par Aloha.host[33] txrate 1000Bps
attr unit Bps
par Aloha.host[34] typename "\"Host\""
par Aloha.host[34] arrrate 0.6
par Aloha.host[34] packet_size 1B
attr unit B
par Aloha.host[34] x 4.58662m
attr unit m
par Aloha.host[34] y 112.638m
attr unit m
par Aloha.host[34] txrate 1000Bps
attr unit Bps
par Aloha.host[35] typename "\"Host\""
par Aloha.host[35] arrrate 0.6
par Aloha.host[35] packet_size 1B
attr unit B
par Aloha.host[35] x 115.533m
attr unit m
par Aloha.host[35] y 73.6324m
attr unit m
par Aloha.host[35] txrate 1000Bps
attr unit Bps
par Aloha.host[36] typename "\"Host\""
par Aloha.host[36] arrrate 0.6
par Aloha.host[36] packet_size 1B
attr unit B
par Aloha.host[36] x 0.328434m
attr unit m
par Aloha.host[36] y 138.186m
attr unit m
par Aloha.host[36] txrate 1000Bps
attr unit Bps
par Aloha.host[37] typename "\"Host\""
par Aloha.host[37] arrrate 0.6
par Aloha.host[37] packet_size 1B
attr unit B
par Aloha.host[37] x 103.095m
attr unit m
par Aloha.host[37] y 163.234m
attr unit m
par Aloha.host[37] txrate 1000Bps
attr unit Bps
par Aloha.host[38] typename "\"Host\""
par Aloha.host[38] arrrate 0.6
par Aloha.host[38] packet_size 1B
attr unit B
par Aloha.host[38] x 127.959m
attr unit m
par Aloha.host[38] y 185.129m
attr unit m
par Aloha.host[38] txrate 1000Bps
attr unit Bps
par Aloha.host[39] typename "\"Host\""
par Aloha.host[39] arrrate 0.6
par Aloha.host[39] packet_size 1B
attr unit B
par Aloha.host[39] x 197.125m
attr unit m
par Aloha.host[39] y 1.14701m
attr unit m
par Aloha.host[39] txrate 1000Bps
attr unit Bps
par Aloha.host[40] typename "\"Host\""
par Aloha.host[40] arrrate 0.6
par Aloha.host[40] packet_size 1B
attr unit B
par Aloha.host[40] x 51.8195m
attr unit m
par Aloha.host[40] y 144.112m
attr unit m
par Aloha.host[40] txrate 1000Bps
attr unit Bps
par Aloha.host[41] typename "\"Host\""
par Aloha.host[41] arrrate 0.6
par Aloha.host[41] packet_size 1B
attr unit B
par Aloha.host[41] x 160.499m
attr unit m
par Aloha.host[41] y 133.412m
attr unit m
par Aloha.host[41] txrate 1000Bps
attr unit Bps
par Aloha.host[42] typename "\"Host\""
par Aloha.host[42] arrrate 0.6
par Aloha.host[42] packet_size 1B
attr unit B
par Aloha.host[42] x 174.097m
attr unit m
par Aloha.host[42] y 39.9531m
attr unit m
par Aloha.host[42] txrate 1000Bps
attr unit Bps
par Aloha.host[43] typename "\"Host\""
par Aloha.host[43] arrrate 0.6
par Aloha.host[43] packet_size 1B
attr unit B
par Aloha.host[43] x 184.55m
attr unit m
par Aloha.host[43] y 139.333m
attr unit m
par Aloha.host[43] txrate 1000Bps
attr unit Bps
par Aloha.host[44] typename "\"Host\""
par Aloha.host[44] arrrate 0.6
par Aloha.host[44] packet_size 1B
attr unit B
par Aloha.host[44] x 0.442843m
attr unit m
par Aloha.host[44] y 115.083m
attr unit m
par Aloha.host[44] txrate 1000Bps
attr unit Bps
par Aloha.host[45] typename "\"Host\""
par Aloha.host[45] arrrate 0.6
par Aloha.host[45] packet_size 1B
attr unit B
par Aloha.host[45] x 93.8977m
attr unit m
par Aloha.host[45] y 115.944m
attr unit m
par Aloha.host[45] txrate 1000Bps
attr unit Bps
par Aloha.host[46] typename "\"Host\""
par Aloha.host[46] arrrate 0.6
par Aloha.host[46] packet_size 1B
attr unit B
par Aloha.host[46] x 196.294m
attr unit m
par Aloha.host[46] y 12.9014m
attr unit m
par Aloha.host[46] txrate 1000Bps
attr unit Bps
par Aloha.host[47] typename "\"Host\""
par Aloha.host[47] arrrate 0.6
par Aloha.host[47] packet_size 1B
attr unit B
par Aloha.host[47] x 79.789m
attr unit m
par Aloha.host[47] y 35.4492m
attr unit m
par Aloha.host[47] txrate 1000Bps
attr unit Bps
par Aloha.host[48] typename "\"Host\""
par Aloha.host[48] arrrate 0.6
par Aloha.host[48] packet_size 1B
attr unit B
par Aloha.host[48] x 162.746m
attr unit m
par Aloha.host[48] y 68.3054m
attr unit m
par Aloha.host[48] txrate 1000Bps
attr unit Bps
par Aloha.host[49] typename "\"Host\""
par Aloha.host[49] arrrate 0.6
par Aloha.host[49] packet_size 1B
attr unit B
par Aloha.host[49] x 109.291m
attr unit m
par Aloha.host[49] y 121.741m
attr unit m
par Aloha.host[49] txrate 1000Bps
attr unit Bps
par Aloha.host[50] typename "\"Host\""
par Aloha.host[50] arrrate 0.6
par Aloha.host[50] packet_size 1B
attr unit B
par Aloha.host[50] x 154.171m
attr unit m
par Aloha.host[50] y 39.095m
attr unit m
par Aloha.host[50] txrate 1000Bps
attr unit Bps
par Aloha.host[51] typename "\"Host\""
par Aloha.host[51] arrrate 0.6
par Aloha.host[51] packet_size 1B
attr unit B
par Aloha.host[51] x 96.9862m
attr unit m
par Aloha.host[51] y 24.3097m
attr unit m
par Aloha.host[51] txrate 1000Bps
attr unit Bps
par Aloha.host[52] typename "\"Host\""
par Aloha.host[52] arrrate 0.6
par Aloha.host[52] packet_size 1B
attr unit B
par Aloha.host[52] x 5.82231m
attr unit m
par Aloha.host[52] y 186.936m
attr unit m
par Aloha.host[52] txrate 1000Bps
attr unit Bps
par Aloha.host[53] typename "\"Host\""
par Aloha.host[53] arrrate 0.6
par Aloha.host[53] packet_size 1B
attr unit B
par Aloha.host[53] x 17.3051m
attr unit m
par Aloha.host[53] y 62.196m
attr unit m
par Aloha.host[53] txrate 1000Bps
attr unit Bps
par Aloha.host[54] typename "\"Host\""
par Aloha.host[54] arrrate 0.6
par Aloha.host[54] packet_size 1B
attr unit B
par Aloha.host[54] x 22.2908m
attr unit m
par Aloha.host[54] y 94.8633m
attr unit m
par Aloha.host[54] txrate 1000Bps
attr unit Bps
par Aloha.host[55] typename "\"Host\""
par Aloha.host[55] arrrate 0.6
par Aloha.host[55] packet_size 1B
attr unit B
par Aloha.host[55] x 50.249m
attr unit m
par Aloha.host[55] y 12.4423m
attr unit m
par Aloha.host[55] txrate 1000Bps
attr unit Bps
par Aloha.host[56] typename "\"Host\""
par Aloha.host[56] arrrate 0.6
par Aloha.host[56] packet_size 1B
attr unit B
par Aloha.host[56] x 192.983m
attr unit m
par Aloha.host[56] y 55.0688m
attr unit m
par Aloha.host[56] txrate 1000Bps
attr unit Bps
par Aloha.host[57] typename "\"Host\""
par Aloha.host[57] arrrate 0.6
par Aloha.host[57] packet_size 1B
attr unit B
par Aloha.host[57] x 126.353m
attr unit m
par Aloha.host[57] y 45.1977m
attr unit m
par Aloha.host[57] txrate 1000Bps
attr unit Bps
par Aloha.host[58] typename "\"Host\""
par Aloha.host[58] arrrate 0.6
par Aloha.host[58] packet_size 1B
attr unit B
par Aloha.host[58] x 163.332m
attr unit m
par Aloha.host[58] y 188.611m
attr unit m
par Aloha.host[58] txrate 1000Bps
attr unit Bps
par Aloha.host[59] typename "\"Host\""
par Aloha.host[59] arrrate 0.6
par Aloha.host[59] packet_size 1B
attr unit B
par Aloha.host[59] x 113.216m
attr unit m
par Aloha.host[59] y 75.4549m
attr unit m
par Aloha.host[59] txrate 1000Bps
attr unit Bps
par Aloha.host[60] typename "\"Host\""
par Aloha.host[60] arrrate 0.6
par Aloha.host[60] packet_size 1B
attr unit B
par Aloha.host[60] x 127.071m
attr unit m
par Aloha.host[60] y 76.7805m
attr unit m
par Aloha.host[60] txrate 1000Bps
attr unit Bps
par Aloha.host[61] typename "\"Host\""
par Aloha.host[61] arrrate 0.6
par Aloha.host[61] packet_size 1B
attr unit B
par Aloha.host[61] x 162.38m
attr unit m
par Aloha.host[61] y 60.4004m
attr unit m
par Aloha.host[61] txrate 1000Bps
attr unit Bps
par Aloha.host[62] typename "\"Host\""
par Aloha.host[62] arrrate 0.6
par Aloha.host[62] packet_size 1B
attr unit B
par Aloha.host[62] x 185.337m
attr unit m
par Aloha.host[62] y 39.0262m
attr unit m
par Aloha.host[62] txrate 1000Bps
attr unit Bps
par Aloha.host[63] typename "\"Host\""
par Aloha.host[63] arrrate 0.6
par Aloha.host[63] packet_size 1B
attr unit B
par Aloha.host[63] x 182.525m
attr unit m
par Aloha.host[63] y 147.263m
attr unit m
par Aloha.host[63] txrate 1000Bps
attr unit Bps
par Aloha.host[64] typename "\"Host\""
par Aloha.host[64] arrrate 0.6
par Aloha.host[64] packet_size 1B
attr unit B
par Aloha.host[64] x 164.962m
attr unit m
par Aloha.host[64] y 185.46m
attr unit m
par Aloha.host[64] txrate 1000Bps
attr unit Bps
par Aloha.host[65] typename "\"Host\""
par Aloha.host[65] arrrate 0.6
par Aloha.host[65] packet_size 1B
attr unit B
par Aloha.host[65] x 18.8405m
attr unit m
par Aloha.host[65] y 136.847m
attr unit m
par Aloha.host[65] txrate 1000Bps
attr unit Bps
par Aloha.host[66] typename "\"Host\""
par Aloha.host[66] arrrate 0.6
par Aloha.host[66] packet_size 1B
attr unit B
par Aloha.host[66] x 72.2097m
attr unit m
par Aloha.host[66] y 84.8411m
attr unit m
par Aloha.host[66] txrate 1000Bps
attr unit Bps
par Aloha.host[67] typename "\"Host\""
par Aloha.host[67] arrrate 0.6
par Aloha.host[67] packet_size 1B
attr unit B
par Aloha.host[67] x 7.10181m
attr unit m
par Aloha.host[67] y 113.27m
attr unit m
par Aloha.host[67] txrate 1000Bps
attr unit Bps
par Aloha.host[68] typename "\"Host\""
par Aloha.host[68] arrrate 0.6
par Aloha.host[68] packet_size 1B
attr unit B
par Aloha.host[68] x 109.272m
attr unit m
par Aloha.host[68] y 42.9958m
attr unit m
par Aloha.host[68] txrate 1000Bps
attr unit Bps
par Aloha.host[69] typename "\"Host\""
par Aloha.host[69] arrrate 0.6
par Aloha.host[69] packet_size 1B
attr unit B
par Aloha.host[69] x 159.229m
attr unit m
par Aloha.host[69] y 31.4062m
attr unit m
par Aloha.host[69] txrate 1000Bps
attr unit Bps
par Aloha.host[70] typename "\"Host\""
par Aloha.host[70] arrrate 0.6
par Aloha.host[70] packet_size 1B
attr unit B
par Aloha.host[70] x 10.2286m
attr unit m
par Aloha.host[70] y 167.163m
attr unit m
par Aloha.host[70] txrate 1000Bps
attr unit Bps
par Aloha.host[71] typename "\"Host\""
par Aloha.host[71] arrrate 0.6
par Aloha.host[71] packet_size 1B
attr unit B
par Aloha.host[71] x 37.7335m
attr unit m
par Aloha.host[71] y 169.011m
attr unit m
par Aloha.host[71] txrate 1000Bps
attr unit Bps
par Aloha.host[72] typename "\"Host\""
par Aloha.host[72] arrrate 0.6
par Aloha.host[72] packet_size 1B
attr unit B
par Aloha.host[72] x 73.0956m
attr unit m
par Aloha.host[72] y 128.736m
attr unit m
par Aloha.host[72] txrate 1000Bps
attr unit Bps
par Aloha.host[73] typename "\"Host\""
par Aloha.host[73] arrrate 0.6
par Aloha.host[73] packet_size 1B
attr unit B
par Aloha.host[73] x 48.8582m
attr unit m
par Aloha.host[73] y 26.8481m
attr unit m
par Aloha.host[73] txrate 1000Bps
attr unit Bps
par Aloha.host[74] typename "\"Host\""
par Aloha.host[74] arrrate 0.6
par Aloha.host[74] packet_size 1B
attr unit B
par Aloha.host[74] x 159.017m
attr unit m
par Aloha.host[74] y 35.3445m
attr unit m
par Aloha.host[74] txrate 1000Bps
attr unit Bps
par Aloha.host[75] typename "\"Host\""
par Aloha.host[75] arrrate 0.6
par Aloha.host[75] packet_size 1B
attr unit B
par Aloha.host[75] x 70.419m
attr unit m
par Aloha.host[75] y 63.7736m
attr unit m
par Aloha.host[75] txrate 1000Bps
attr unit Bps
par Aloha.host[76] typename "\"Host\""
par Aloha.host[76] arrrate 0.6
par Aloha.host[76] packet_size 1B
attr unit B
par Aloha.host[76] x 127.776m
attr unit m
par Aloha.host[76] y 191.21m
attr unit m
par Aloha.host[76] txrate 1000Bps
attr unit Bps
par Aloha.host[77] typename "\"Host\""
par Aloha.host[77] arrrate 0.6
par Aloha.host[77] packet_size 1B
attr unit B
par Aloha.host[77] x 98.683m
attr unit m
par Aloha.host[77] y 45.317m
attr unit m
par Aloha.host[77] txrate 1000Bps
attr unit Bps
par Aloha.host[78] typename "\"Host\""
par Aloha.host[78] arrrate 0.6
par Aloha.host[78] packet_size 1B
attr unit B
par Aloha.host[78] x 116.7m
attr unit m
par Aloha.host[78] y 178.138m
attr unit m
par Aloha.host[78] txrate 1000Bps
attr unit Bps
par Aloha.host[79] typename "\"Host\""
par Aloha.host[79] arrrate 0.6
par Aloha.host[79] packet_size 1B
attr unit B
par Aloha.host[79] x 187.86m
attr unit m
par Aloha.host[79] y 186.519m
attr unit m
par Aloha.host[79] txrate 1000Bps
attr unit Bps
par Aloha.host[80] typename "\"Host\""
par Aloha.host[80] arrrate 0.6
par Aloha.host[80] packet_size 1B
attr unit B
par Aloha.host[80] x 188.708m
attr unit m
par Aloha.host[80] y 17.021m
attr unit m
par Aloha.host[80] txrate 1000Bps
attr unit Bps
par Aloha.host[81] typename "\"Host\""
par Aloha.host[81] arrrate 0.6
par Aloha.host[81] packet_size 1B
attr unit B
par Aloha.host[81] x 22.3385m
attr unit m
par Aloha.host[81] y 162.277m
attr unit m
par Aloha.host[81] txrate 1000Bps
attr unit Bps
par Aloha.host[82] typename "\"Host\""
par Aloha.host[82] arrrate 0.6
par Aloha.host[82] packet_size 1B
attr unit B
par Aloha.host[82] x 168.711m
attr unit m
par Aloha.host[82] y 198.886m
attr unit m
par Aloha.host[82] txrate 1000Bps
attr unit Bps
par Aloha.host[83] typename "\"Host\""
par Aloha.host[83] arrrate 0.6
par Aloha.host[83] packet_size 1B
attr unit B
par Aloha.host[83] x 69.2056m
attr unit m
par Aloha.host[83] y 70.5446m
attr unit m
par Aloha.host[83] txrate 1000Bps
attr unit Bps
par Aloha.host[84] typename "\"Host\""
par Aloha.host[84] arrrate 0.6
par Aloha.host[84] packet_size 1B
attr unit B
par Aloha.host[84] x 20.1655m
attr unit m
par Aloha.host[84] y 96.8121m
attr unit m
par Aloha.host[84] txrate 1000Bps
attr unit Bps
par Aloha.host[85] typename "\"Host\""
par Aloha.host[85] arrrate 0.6
par Aloha.host[85] packet_size 1B
attr unit B
par Aloha.host[85] x 76.6818m
attr unit m
par Aloha.host[85] y 148.426m
attr unit m
par Aloha.host[85] txrate 1000Bps
attr unit Bps
par Aloha.host[86] typename "\"Host\""
par Aloha.host[86] arrrate 0.6
par Aloha.host[86] packet_size 1B
attr unit B
par Aloha.host[86] x 102.071m
attr unit m
par Aloha.host[86] y 74.5549m
attr unit m
par Aloha.host[86] txrate 1000Bps
attr unit Bps
par Aloha.host[87] typename "\"Host\""
par Aloha.host[87] arrrate 0.6
par Aloha.host[87] packet_size 1B
attr unit B
par Aloha.host[87] x 192.221m
attr unit m
par Aloha.host[87] y 7.0315m
attr unit m
par Aloha.host[87] txrate 1000Bps
attr unit Bps
par Aloha.host[88] typename "\"Host\""
par Aloha.host[88] arrrate 0.6
par Aloha.host[88] packet_size 1B
attr unit B
par Aloha.host[88] x 74.3025m
attr unit m
par Aloha.host[88] y 30.5326m
attr unit m
par Aloha.host[88] txrate 1000Bps
attr unit Bps
par Aloha.host[89] typename "\"Host\""
par Aloha.host[89] arrrate 0.6
par Aloha.host[89] packet_size 1B
attr unit B
par Aloha.host[89] x 2.47388m
attr unit m
par Aloha.host[89] y 64.3394m
attr unit m
par Aloha.host[89] txrate 1000Bps
attr unit Bps
par Aloha.host[90] typename "\"Host\""
par Aloha.host[90] arrrate 0.6
par Aloha.host[90] packet_size 1B
attr unit B
par Aloha.host[90] x 171.941m
attr unit m
par Aloha.host[90] y 23.5016m
attr unit m
par Aloha.host[90] txrate 1000Bps
attr unit Bps
par Aloha.host[91] typename "\"Host\""
par Aloha.host[91] arrrate 0.6
par Aloha.host[91] packet_size 1B
attr unit B
par Aloha.host[91] x 22.2222m
attr unit m
par Aloha.host[91] y 71.937m
attr unit m
par Aloha.host[91] txrate 1000Bps
attr unit Bps
par Aloha.host[92] typename "\"Host\""
par Aloha.host[92] arrrate 0.6
par Aloha.host[92] packet_size 1B
attr unit B
par Aloha.host[92] x 95.6678m
attr unit m
par Aloha.host[92] y 139.52m
attr unit m
par Aloha.host[92] txrate 1000Bps
attr unit Bps
par Aloha.host[93] typename "\"Host\""
par Aloha.host[93] arrrate 0.6
par Aloha.host[93] packet_size 1B
attr unit B
par Aloha.host[93] x 169.996m
attr unit m
par Aloha.host[93] y 158.448m
attr unit m
par Aloha.host[93] txrate 1000Bps
attr unit Bps
par Aloha.host[94] typename "\"Host\""
par Aloha.host[94] arrrate 0.6
par Aloha.host[94] packet_size 1B
attr unit B
par Aloha.host[94] x 102.948m
attr unit m
par Aloha.host[94] y 89.234m
attr unit m
par Aloha.host[94] txrate 1000Bps
attr unit Bps
par Aloha.host[95] typename "\"Host\""
par Aloha.host[95] arrrate 0.6
par Aloha.host[95] packet_size 1B
attr unit B
par Aloha.host[95] x 89.3216m
attr unit m
par Aloha.host[95] y 194.15m
attr unit m
par Aloha.host[95] txrate 1000Bps
attr unit Bps
par Aloha.host[96] typename "\"Host\""
par Aloha.host[96] arrrate 0.6
par Aloha.host[96] packet_size 1B
attr unit B
par Aloha.host[96] x 160.095m
attr unit m
par Aloha.host[96] y 102.143m
attr unit m
par Aloha.host[96] txrate 1000Bps
attr unit Bps
par Aloha.host[97] typename "\"Host\""
par Aloha.host[97] arrrate 0.6
par Aloha.host[97] packet_size 1B
attr unit B
par Aloha.host[97] x 4.07828m
attr unit m
par Aloha.host[97] y 97.2198m
attr unit m
par Aloha.host[97] txrate 1000Bps
attr unit Bps
par Aloha.host[98] typename "\"Host\""
par Aloha.host[98] arrrate 0.6
par Aloha.host[98] packet_size 1B
attr unit B
par Aloha.host[98] x 114.524m
attr unit m
par Aloha.host[98] y 10.6825m
attr unit m
par Aloha.host[98] txrate 1000Bps
attr unit Bps
par Aloha.host[99] typename "\"Host\""
par Aloha.host[99] arrrate 0.6
par Aloha.host[99] packet_size 1B
attr unit B
par Aloha.host[99] x 82.2767m
attr unit m
par Aloha.host[99] y 49.2666m
attr unit m
par Aloha.host[99] txrate 1000Bps
attr unit Bps
par Aloha.host[100] typename "\"Host\""
par Aloha.host[100] arrrate 0.6
par Aloha.host[100] packet_size 1B
attr unit B
par Aloha.host[100] x 197.027m
attr unit m
par Aloha.host[100] y 151.185m
attr unit m
par Aloha.host[100] txrate 1000Bps
attr unit Bps
par Aloha.host[101] typename "\"Host\""
par Aloha.host[101] arrrate 0.6
par Aloha.host[101] packet_size 1B
attr unit B
par Aloha.host[101] x 160.28m
attr unit m
par Aloha.host[101] y 125.499m
attr unit m
par Aloha.host[101] txrate 1000Bps
attr unit Bps
par Aloha.host[102] typename "\"Host\""
par Aloha.host[102] arrrate 0.6
par Aloha.host[102] packet_size 1B
attr unit B
par Aloha.host[102] x 10.7924m
attr unit m
par Aloha.host[102] y 149.605m
attr unit m
par Aloha.host[102] txrate 1000Bps
attr unit Bps
par Aloha.host[103] typename "\"Host\""
par Aloha.host[103] arrrate 0.6
par Aloha.host[103] packet_size 1B
attr unit B
par Aloha.host[103] x 38.0956m
attr unit m
par Aloha.host[103] y 197.539m
attr unit m
par Aloha.host[103] txrate 1000Bps
attr unit Bps
par Aloha.host[104] typename "\"Host\""
par Aloha.host[104] arrrate 0.6
par Aloha.host[104] packet_size 1B
attr unit B
par Aloha.host[104] x 90.4838m
attr unit m
par Aloha.host[104] y 117.987m
attr unit m
par Aloha.host[104] txrate 1000Bps
attr unit Bps
par Aloha.host[105] typename "\"Host\""
par Aloha.host[105] arrrate 0.6
par Aloha.host[105] packet_size 1B
attr unit B
par Aloha.host[105] x 140.588m
attr unit m
par Aloha.host[105] y 101.275m
attr unit m
par Aloha.host[105] txrate 1000Bps
attr unit Bps
par Aloha.host[106] typename "\"Host\""
par Aloha.host[106] arrrate 0.6
par Aloha.host[106] packet_size 1B
attr unit B
par Aloha.host[106] x 66.4096m
attr unit m
par Aloha.host[106] y 43.4566m
attr unit m
par Aloha.host[106] txrate 1000Bps
attr unit Bps
par Aloha.host[107] typename "\"Host\""
par Aloha.host[107] arrrate 0.6
par Aloha.host[107] packet_size 1B
attr unit B
par Aloha.host[107] x 71.9966m
attr unit m
par Aloha.host[107] y 114.815m
attr unit m
par Aloha.host[107] txrate 1000Bps
attr unit Bps
par Aloha.host[108] typename "\"Host\""
par Aloha.host[108] arrrate 0.6
par Aloha.host[108] packet_size 1B
attr unit B
par Aloha.host[108] x 184.294m
attr unit m
par Aloha.host[108] y 156.383m
attr unit m
par Aloha.host[108] txrate 1000Bps
attr unit Bps
par Aloha.host[109] typename "\"Host\""
par Aloha.host[109] arrrate 0.6
par Aloha.host[109] packet_size 1B
attr unit B
par Aloha.host[109] x 190.726m
attr unit m
par Aloha.host[109] y 166.043m
attr unit m
par Aloha.host[109] txrate 1000Bps
attr unit Bps
par Aloha.host[110] typename "\"Host\""
par Aloha.host[110] arrrate 0.6
par Aloha.host[110] packet_size 1B
attr unit B
par Aloha.host[110] x 81.5371m
attr unit m
par Aloha.host[110] y 48.2141m
attr unit m
par Aloha.host[110] txrate 1000Bps
attr unit Bps
par Aloha.host[111] typename "\"Host\""
par Aloha.host[111] arrrate 0.6
par Aloha.host[111] packet_size 1B
attr unit B
par Aloha.host[111] x 179.714m
attr unit m
par Aloha.host[111] y 170.993m
attr unit m
par Aloha.host[111] txrate 1000Bps
attr unit Bps
par Aloha.host[112] typename "\"Host\""
par Aloha.host[112] arrrate 0.6
par Aloha.host[112] packet_size 1B
attr unit B
par Aloha.host[112] x 66.0507m
attr unit m
par Aloha.host[112] y 28.5233m
attr unit m
par Aloha.host[112] txrate 1000Bps
attr unit Bps
par Aloha.host[113] typename "\"Host\""
par Aloha.host[113] arrrate 0.6
par Aloha.host[113] packet_size 1B
attr unit B
par Aloha.host[113] x 16.5477m
attr unit m
par Aloha.host[113] y 151.977m
attr unit m
par Aloha.host[113] txrate 1000Bps
attr unit Bps
par Aloha.host[114] typename "\"Host\""
par Aloha.host[114] arrrate 0.6
par Aloha.host[114] packet_size 1B
attr unit B
par Aloha.host[114] x 105.344m
attr unit m
par Aloha.host[114] y 186.709m
attr unit m
par Aloha.host[114] txrate 1000Bps
attr unit Bps
par Aloha.host[115] typename "\"Host\""
par Aloha.host[115] arrrate 0.6
par Aloha.host[115] packet_size 1B
attr unit B
par Aloha.host[115] x 132.169m
attr unit m
par Aloha.host[115] y 143.196m
attr unit m
par Aloha.host[115] txrate 1000Bps
attr unit Bps
par Aloha.host[116] typename "\"Host\""
par Aloha.host[116] arrrate 0.6
par Aloha.host[116] packet_size 1B
attr unit B
par Aloha.host[116] x 178.597m
attr unit m
par Aloha.host[116] y 25.6103m
attr unit m
par Aloha.host[116] txrate 1000Bps
attr unit Bps
par Aloha.host[117] typename "\"Host\""
par Aloha.host[117] arrrate 0.6
par Aloha.host[117] packet_size 1B
attr unit B
par Aloha.host[117] x 193.032m
attr unit m
par Aloha.host[117] y 24.4636m
attr unit m
par Aloha.host[117] txrate 1000Bps
attr unit Bps
par Aloha.host[118] typename "\"Host\""
par Aloha.host[118] arrrate 0.6
par Aloha.host[118] packet_size 1B
attr unit B
par Aloha.host[118] x 153.987m
attr unit m
par Aloha.host[118] y 121.062m
attr unit m
par Aloha.host[118] txrate 1000Bps
attr unit Bps
par Aloha.host[119] typename "\"Host\""
par Aloha.host[119] arrrate 0.6
par Aloha.host[119] packet_size 1B
attr unit B
par Aloha.host[119] x 151.82m
attr unit m
par Aloha.host[119] y 196.719m
attr unit m
par Aloha.host[119] txrate 1000Bps
attr unit Bps
par Aloha.host[120] typename "\"Host\""
par Aloha.host[120] arrrate 0.6
par Aloha.host[120] packet_size 1B
attr unit B
par Aloha.host[120] x 142.01m
attr unit m
par Aloha.host[120] y 180.895m
attr unit m
par Aloha.host[120] txrate 1000Bps
attr unit Bps
par Aloha.host[121] typename "\"Host\""
par Aloha.host[121] arrrate 0.6
par Aloha.host[121] packet_size 1B
attr unit B
par Aloha.host[121] x 140.311m
attr unit m
par Aloha.host[121] y 52.2072m
attr unit m
par Aloha.host[121] txrate 1000Bps
attr unit Bps
par Aloha.host[122] typename "\"Host\""
par Aloha.host[122] arrrate 0.6
par Aloha.host[122] packet_size 1B
attr unit B
par Aloha.host[122] x 153.466m
attr unit m
par Aloha.host[122] y 119.346m
attr unit m
par Aloha.host[122] txrate 1000Bps
attr unit Bps
par Aloha.host[123] typename "\"Host\""
par Aloha.host[123] arrrate 0.6
par Aloha.host[123] packet_size 1B
attr unit B
par Aloha.host[123] x 194.87m
attr unit m
par Aloha.host[123] y 66.803m
attr unit m
par Aloha.host[123] txrate 1000Bps
attr unit Bps
par Aloha.host[124] typename "\"Host\""
par Aloha.host[124] arrrate 0.6
par Aloha.host[124] packet_size 1B
attr unit B
par Aloha.host[124] x 74.7429m
attr unit m
par Aloha.host[124] y 89.1007m
attr unit m
par Aloha.host[124] txrate 1000Bps
attr unit Bps
par Aloha.host[125] typename "\"Host\""
par Aloha.host[125] arrrate 0.6
par Aloha.host[125] packet_size 1B
attr unit B
par Aloha.host[125] x 16.6109m
attr unit m
par Aloha.host[125] y 128.985m
attr unit m
par Aloha.host[125] txrate 1000Bps
attr unit Bps
par Aloha.host[126] typename "\"Host\""
par Aloha.host[126] arrrate 0.6
par Aloha.host[126] packet_size 1B
attr unit B
par Aloha.host[126] x 47.9281m
attr unit m
par Aloha.host[126] y 68.3348m
attr unit m
par Aloha.host[126] txrate 1000Bps
attr unit Bps
par Aloha.host[127] typename "\"Host\""
par Aloha.host[127] arrrate 0.6
par Aloha.host[127] packet_size 1B
attr unit B
par Aloha.host[127] x 44.2966m
attr unit m
par Aloha.host[127] y 168.828m
attr unit m
par Aloha.host[127] txrate 1000Bps
attr unit Bps
par Aloha.host[128] typename "\"Host\""
par Aloha.host[128] arrrate 0.6
par Aloha.host[128] packet_size 1B
attr unit B
par Aloha.host[128] x 72.72m
attr unit m
par Aloha.host[128] y 125.662m
attr unit m
par Aloha.host[128] txrate 1000Bps
attr unit Bps
par Aloha.host[129] typename "\"Host\""
par Aloha.host[129] arrrate 0.6
par Aloha.host[129] packet_size 1B
attr unit B
par Aloha.host[129] x 162.063m
attr unit m
par Aloha.host[129] y 40.0369m
attr unit m
par Aloha.host[129] txrate 1000Bps
attr unit Bps
par Aloha.host[130] typename "\"Host\""
par Aloha.host[130] arrrate 0.6
par Aloha.host[130] packet_size 1B
attr unit B
par Aloha.host[130] x 12.0192m
attr unit m
par Aloha.host[130] y 76.1927m
attr unit m
par Aloha.host[130] txrate 1000Bps
attr unit Bps
par Aloha.host[131] typename "\"Host\""
par Aloha.host[131] arrrate 0.6
par Aloha.host[131] packet_size 1B
attr unit B
par Aloha.host[131] x 89.9487m
attr unit m
par Aloha.host[131] y 104.702m
attr unit m
par Aloha.host[131] txrate 1000Bps
attr unit Bps
par Aloha.host[132] typename "\"Host\""
par Aloha.host[132] arrrate 0.6
par Aloha.host[132] packet_size 1B
attr unit B
par Aloha.host[132] x 162.634m
attr unit m
par Aloha.host[132] y 135.075m
attr unit m
par Aloha.host[132] txrate 1000Bps
attr unit Bps
par Aloha.host[133] typename "\"Host\""
par Aloha.host[133] arrrate 0.6
par Aloha.host[133] packet_size 1B
attr unit B
par Aloha.host[133] x 52.8477m
attr unit m
par Aloha.host[133] y 56.2518m
attr unit m
par Aloha.host[133] txrate 1000Bps
attr unit Bps
par Aloha.host[134] typename "\"Host\""
par Aloha.host[134] arrrate 0.6
par Aloha.host[134] packet_size 1B
attr unit B
par Aloha.host[134] x 12.6802m
attr unit m
par Aloha.host[134] y 150.687m
attr unit m
par Aloha.host[134] txrate 1000Bps
attr unit Bps
par Aloha.host[135] typename "\"Host\""
par Aloha.host[135] arrrate 0.6
par Aloha.host[135] packet_size 1B
attr unit B
par Aloha.host[135] x 48.4215m
attr unit m
par Aloha.host[135] y 140.312m
attr unit m
par Aloha.host[135] txrate 1000Bps
attr unit Bps
par Aloha.host[136] typename "\"Host\""
par Aloha.host[136] arrrate 0.6
par Aloha.host[136] packet_size 1B
attr unit B
par Aloha.host[136] x 17.0141m
attr unit m
par Aloha.host[136] y 19.205m
attr unit m
par Aloha.host[136] txrate 1000Bps
attr unit Bps
par Aloha.host[137] typename "\"Host\""
par Aloha.host[137] arrrate 0.6
par Aloha.host[137] packet_size 1B
attr unit B
par Aloha.host[137] x 161.555m
attr unit m
par Aloha.host[137] y 20.3977m
attr unit m
par Aloha.host[137] txrate 1000Bps
attr unit Bps
par Aloha.host[138] typename "\"Host\""
par Aloha.host[138] arrrate 0.6
par Aloha.host[138] packet_size 1B
attr unit B
par Aloha.host[138] x 34.05m
attr unit m
par Aloha.host[138] y 68.7943m
attr unit m
par Aloha.host[138] txrate 1000Bps
attr unit Bps
par Aloha.host[139] typename "\"Host\""
par Aloha.host[139] arrrate 0.6
par Aloha.host[139] packet_size 1B
attr unit B
par Aloha.host[139] x 39.0689m
attr unit m
par Aloha.host[139] y 164m
attr unit m
par Aloha.host[139] txrate 1000Bps
attr unit Bps
par Aloha.host[140] typename "\"Host\""
par Aloha.host[140] arrrate 0.6
par Aloha.host[140] packet_size 1B
attr unit B
par Aloha.host[140] x 162.928m
attr unit m
par Aloha.host[140] y 184.929m
attr unit m
par Aloha.host[140] txrate 1000Bps
attr unit Bps
par Aloha.host[141] typename "\"Host\""
par Aloha.host[141] arrrate 0.6
par Aloha.host[141] packet_size 1B
attr unit B
par Aloha.host[141] x 162.057m
attr unit m
par Aloha.host[141] y 151.63m
attr unit m
par Aloha.host[141] txrate 1000Bps
attr unit Bps
par Aloha.host[142] typename "\"Host\""
par Aloha.host[142] arrrate 0.6
par Aloha.host[142] packet_size 1B
attr unit B
par Aloha.host[142] x 117.875m
attr unit m
par Aloha.host[142] y 175.816m
attr unit m
par Aloha.host[142] txrate 1000Bps
attr unit Bps
par Aloha.host[143] typename "\"Host\""
par Aloha.host[143] arrrate 0.6
par Aloha.host[143] packet_size 1B
attr unit B
par Aloha.host[143] x 182.947m
attr unit m
par Aloha.host[143] y 170.829m
attr unit m
par Aloha.host[143] txrate 1000Bps
attr unit Bps
par Aloha.host[144] typename "\"Host\""
par Aloha.host[144] arrrate 0.6
par Aloha.host[144] packet_size 1B
attr unit B
par Aloha.host[144] x 11.9643m
attr unit m
par Aloha.host[144] y 34.0897m
attr unit m
par Aloha.host[144] txrate 1000Bps
attr unit Bps
par Aloha.host[145] typename "\"Host\""
par Aloha.host[145] arrrate 0.6
par Aloha.host[145] packet_size 1B
attr unit B
par Aloha.host[145] x 192.999m
attr unit m
par Aloha.host[145] y 116.943m
attr unit m
par Aloha.host[145] txrate 1000Bps
attr unit Bps
par Aloha.host[146] typename "\"Host\""
par Aloha.host[146] arrrate 0.6
par Aloha.host[146] packet_size 1B
attr unit B
par Aloha.host[146] x 114.195m
attr unit m
par Aloha.host[146] y 70.1387m
attr unit m
par Aloha.host[146] txrate 1000Bps
attr unit Bps
par Aloha.host[147] typename "\"Host\""
par Aloha.host[147] arrrate 0.6
par Aloha.host[147] packet_size 1B
attr unit B
par Aloha.host[147] x 60.5036m
attr unit m
par Aloha.host[147] y 147.73m
attr unit m
par Aloha.host[147] txrate 1000Bps
attr unit Bps
par Aloha.host[148] typename "\"Host\""
par Aloha.host[148] arrrate 0.6
par Aloha.host[148] packet_size 1B
attr unit B
par Aloha.host[148] x 165.141m
attr unit m
par Aloha.host[148] y 5.79417m
attr unit m
par Aloha.host[148] txrate 1000Bps
attr unit Bps
par Aloha.host[149] typename "\"Host\""
par Aloha.host[149] arrrate 0.6
par Aloha.host[149] packet_size 1B
attr unit B
par Aloha.host[149] x 131.883m
attr unit m
par Aloha.host[149] y 34.5924m
attr unit m
par Aloha.host[149] txrate 1000Bps
attr unit Bps
par Aloha.host[150] typename "\"Host\""
par Aloha.host[150] arrrate 0.6
par Aloha.host[150] packet_size 1B
attr unit B
par Aloha.host[150] x 197.3m
attr unit m
par Aloha.host[150] y 26.7778m
attr unit m
par Aloha.host[150] txrate 1000Bps
attr unit Bps
par Aloha.host[151] typename "\"Host\""
par Aloha.host[151] arrrate 0.6
par Aloha.host[151] packet_size 1B
attr unit B
par Aloha.host[151] x 21.4979m
attr unit m
par Aloha.host[151] y 196.046m
attr unit m
par Aloha.host[151] txrate 1000Bps
attr unit Bps
par Aloha.host[152] typename "\"Host\""
par Aloha.host[152] arrrate 0.6
par Aloha.host[152] packet_size 1B
attr unit B
par Aloha.host[152] x 116.184m
attr unit m
par Aloha.host[152] y 186.412m
attr unit m
par Aloha.host[152] txrate 1000Bps
attr unit Bps
par Aloha.host[153] typename "\"Host\""
par Aloha.host[153] arrrate 0.6
par Aloha.host[153] packet_size 1B
attr unit B
par Aloha.host[153] x 94.5656m
attr unit m
par Aloha.host[153] y 141.244m
attr unit m
par Aloha.host[153] txrate 1000Bps
attr unit Bps
par Aloha.host[154] typename "\"Host\""
par Aloha.host[154] arrrate 0.6
par Aloha.host[154] packet_size 1B
attr unit B
par Aloha.host[154] x 130.454m
attr unit m
par Aloha.host[154] y 187.209m
attr unit m
par Aloha.host[154] txrate 1000Bps
attr unit Bps
par Aloha.host[155] typename "\"Host\""
par Aloha.host[155] arrrate 0.6
par Aloha.host[155] packet_size 1B
attr unit B
par Aloha.host[155] x 48.3718m
attr unit m
par Aloha.host[155] y 147.437m
attr unit m
par Aloha.host[155] txrate 1000Bps
attr unit Bps
par Aloha.host[156] typename "\"Host\""
par Aloha.host[156] arrrate 0.6
par Aloha.host[156] packet_size 1B
attr unit B
par Aloha.host[156] x 6.22601m
attr unit m
par Aloha.host[156] y 76.9029m
attr unit m
par Aloha.host[156] txrate 1000Bps
attr unit Bps
par Aloha.host[157] typename "\"Host\""
par Aloha.host[157] arrrate 0.6
par Aloha.host[157] packet_size 1B
attr unit B
par Aloha.host[157] x 108.846m
attr unit m
par Aloha.host[157] y 177.938m
attr unit m
par Aloha.host[157] txrate 1000Bps
attr unit Bps
par Aloha.host[158] typename "\"Host\""
par Aloha.host[158] arrrate 0.6
par Aloha.host[158] packet_size 1B
attr unit B
par Aloha.host[158] x 72.942m
attr unit m
par Aloha.host[158] y 115.198m
attr unit m
par Aloha.host[158] txrate 1000Bps
attr unit Bps
par Aloha.host[159] typename "\"Host\""
par Aloha.host[159] arrrate 0.6
par Aloha.host[159] packet_size 1B
attr unit B
par Aloha.host[159] x 178.467m
attr unit m
par Aloha.host[159] y 165.873m
attr unit m
par Aloha.host[159] txrate 1000Bps
attr unit Bps
par Aloha.host[160] typename "\"Host\""
par Aloha.host[160] arrrate 0.6
par Aloha.host[160] packet_size 1B
attr unit B
par Aloha.host[160] x 91.8691m
attr unit m
par Aloha.host[160] y 19.0628m
attr unit m
par Aloha.host[160] txrate 1000Bps
attr unit Bps
par Aloha.host[161] typename "\"Host\""
par Aloha.host[161] arrrate 0.6
par Aloha.host[161] packet_size 1B
attr unit B
par Aloha.host[161] x 83.7308m
attr unit m
par Aloha.host[161] y 24.9675m
attr unit m
par Aloha.host[161] txrate 1000Bps
attr unit Bps
par Aloha.host[162] typename "\"Host\""
par Aloha.host[162] arrrate 0.6
par Aloha.host[162] packet_size 1B
attr unit B
par Aloha.host[162] x 126.581m
attr unit m
par Aloha.host[162] y 144.715m
attr unit m
par Aloha.host[162] txrate 1000Bps
attr unit Bps
par Aloha.host[163] typename "\"Host\""
par Aloha.host[163] arrrate 0.6
par Aloha.host[163] packet_size 1B
attr unit B
par Aloha.host[163] x 105.436m
attr unit m
par Aloha.host[163] y 41.5558m
attr unit m
par Aloha.host[163] txrate 1000Bps
attr unit Bps
par Aloha.host[164] typename "\"Host\""
par Aloha.host[164] arrrate 0.6
par Aloha.host[164] packet_size 1B
attr unit B
par Aloha.host[164] x 192.242m
attr unit m
par Aloha.host[164] y 72.4919m
attr unit m
par Aloha.host[164] txrate 1000Bps
attr unit Bps
par Aloha.host[165] typename "\"Host\""
par Aloha.host[165] arrrate 0.6
par Aloha.host[165] packet_size 1B
attr unit B
par Aloha.host[165] x 157.802m
attr unit m
par Aloha.host[165] y 188.952m
attr unit m
par Aloha.host[165] txrate 1000Bps
attr unit Bps
par Aloha.host[166] typename "\"Host\""
par Aloha.host[166] arrrate 0.6
par Aloha.host[166] packet_size 1B
attr unit B
par Aloha.host[166] x 99.3391m
attr unit m
par Aloha.host[166] y 148.448m
attr unit m
par Aloha.host[166] txrate 1000Bps
attr unit Bps
par Aloha.host[167] typename "\"Host\""
par Aloha.host[167] arrrate 0.6
par Aloha.host[167] packet_size 1B
attr unit B
par Aloha.host[167] x 42.2282m
attr unit m
par Aloha.host[167] y 85.5341m
attr unit m
par Aloha.host[167] txrate 1000Bps
attr unit Bps
par Aloha.host[168] typename "\"Host\""
par Aloha.host[168] arrrate 0.6
par Aloha.host[168] packet_size 1B
attr unit B
par Aloha.host[168] x 120.797m
attr unit m
par Aloha.host[168] y 33.1949m
attr unit m
par Aloha.host[168] txrate 1000Bps
attr unit Bps
par Aloha.host[169] typename "\"Host\""
par Aloha.host[169] arrrate 0.6
par Aloha.host[169] packet_size 1B
attr unit B
par Aloha.host[169] x 149.715m
attr unit m
par Aloha.host[169] y 105.685m
attr unit m
par Aloha.host[169] txrate 1000Bps
attr unit Bps
par Aloha.host[170] typename "\"Host\""
par Aloha.host[170] arrrate 0.6
par Aloha.host[170] packet_size 1B
attr unit B
par Aloha.host[170] x 151.173m
attr unit m
par Aloha.host[170] y 21.835m
attr unit m
par Aloha.host[170] txrate 1000Bps
attr unit Bps
par Aloha.host[171] typename "\"Host\""
par Aloha.host[171] arrrate 0.6
par Aloha.host[171] packet_size 1B
attr unit B
par Aloha.host[171] x 198.701m
attr unit m
par Aloha.host[171] y 140.723m
attr unit m
par Aloha.host[171] txrate 1000Bps
attr unit Bps
par Aloha.host[172] typename "\"Host\""
par Aloha.host[172] arrrate 0.6
par Aloha.host[172] packet_size 1B
attr unit B
par Aloha.host[172] x 43.6996m
attr unit m
par Aloha.host[172] y 156.902m
attr unit m
par Aloha.host[172] txrate 1000Bps
attr unit Bps
par Aloha.host[173] typename "\"Host\""
par Aloha.host[173] arrrate 0.6
par Aloha.host[173] packet_size 1B
attr unit B
par Aloha.host[173] x 85.1275m
attr unit m
par Aloha.host[173] y 171.809m
attr unit m
par Aloha.host[173] txrate 1000Bps
attr unit Bps
par Aloha.host[174] typename "\"Host\""
par Aloha.host[174] arrrate 0.6
par Aloha.host[174] packet_size 1B
attr unit B
par Aloha.host[174] x 84.7699m
attr unit m
par Aloha.host[174] y 140.444m
attr unit m
par Aloha.host[174] txrate 1000Bps
attr unit Bps
par Aloha.host[175] typename "\"Host\""
par Aloha.host[175] arrrate 0.6
par Aloha.host[175] packet_size 1B
attr unit B
par Aloha.host[175] x 63.7293m
attr unit m
par Aloha.host[175] y 180.203m
attr unit m
par Aloha.host[175] txrate 1000Bps
attr unit Bps
par Aloha.host[176] typename "\"Host\""
par Aloha.host[176] arrrate 0.6
par Aloha.host[176] packet_size 1B
attr unit B
par Aloha.host[176] x 73.0666m
attr unit m
par Aloha.host[176] y 152.951m
attr unit m
par Aloha.host[176] txrate 1000Bps
attr unit Bps
par Aloha.host[177] typename "\"Host\""
par Aloha.host[177] arrrate 0.6
par Aloha.host[177] packet_size 1B
attr unit B
par Aloha.host[177] x 95.5883m
attr unit m
par Aloha.host[177] y 151.915m
attr unit m
par Aloha.host[177] txrate 1000Bps
attr unit Bps
par Aloha.host[178] typename "\"Host\""
par Aloha.host[178] arrrate 0.6
par Aloha.host[178] packet_size 1B
attr unit B
par Aloha.host[178] x 108.418m
attr unit m
par Aloha.host[178] y 15.3813m
attr unit m
par Aloha.host[178] txrate 1000Bps
attr unit Bps
par Aloha.host[179] typename "\"Host\""
par Aloha.host[179] arrrate 0.6
par Aloha.host[179] packet_size 1B
attr unit B
par Aloha.host[179] x 53.0461m
attr unit m
par Aloha.host[179] y 19.8257m
attr unit m
par Aloha.host[179] txrate 1000Bps
attr unit Bps
par Aloha.host[180] typename "\"Host\""
par Aloha.host[180] arrrate 0.6
par Aloha.host[180] packet_size 1B
attr unit B
par Aloha.host[180] x 26.8727m
attr unit m
par Aloha.host[180] y 55.5908m
attr unit m
par Aloha.host[180] txrate 1000Bps
attr unit Bps
par Aloha.host[181] typename "\"Host\""
par Aloha.host[181] arrrate 0.6
par Aloha.host[181] packet_size 1B
attr unit B
par Aloha.host[181] x 60.3772m
attr unit m
par Aloha.host[181] y 30.4946m
attr unit m
par Aloha.host[181] txrate 1000Bps
attr unit Bps
par Aloha.host[182] typename "\"Host\""
par Aloha.host[182] arrrate 0.6
par Aloha.host[182] packet_size 1B
attr unit B
par Aloha.host[182] x 27.296m
attr unit m
par Aloha.host[182] y 21.9837m
attr unit m
par Aloha.host[182] txrate 1000Bps
attr unit Bps
par Aloha.host[183] typename "\"Host\""
par Aloha.host[183] arrrate 0.6
par Aloha.host[183] packet_size 1B
attr unit B
par Aloha.host[183] x 63.54m
attr unit m
par Aloha.host[183] y 95.8245m
attr unit m
par Aloha.host[183] txrate 1000Bps
attr unit Bps
par Aloha.host[184] typename "\"Host\""
par Aloha.host[184] arrrate 0.6
par Aloha.host[184] packet_size 1B
attr unit B
par Aloha.host[184] x 135.837m
attr unit m
par Aloha.host[184] y 64.6934m
attr unit m
par Aloha.host[184] txrate 1000Bps
attr unit Bps
par Aloha.host[185] typename "\"Host\""
par Aloha.host[185] arrrate 0.6
par Aloha.host[185] packet_size 1B
attr unit B
par Aloha.host[185] x 120.268m
attr unit m
par Aloha.host[185] y 139.435m
attr unit m
par Aloha.host[185] txrate 1000Bps
attr unit Bps
par Aloha.host[186] typename "\"Host\""
par Aloha.host[186] arrrate 0.6
par Aloha.host[186] packet_size 1B
attr unit B
par Aloha.host[186] x 199.445m
attr unit m
par Aloha.host[186] y 85.1631m
attr unit m
par Aloha.host[186] txrate 1000Bps
attr unit Bps
par Aloha.host[187] typename "\"Host\""
par Aloha.host[187] arrrate 0.6
par Aloha.host[187] packet_size 1B
attr unit B
par Aloha.host[187] x 112.183m
attr unit m
par Aloha.host[187] y 169.274m
attr unit m
par Aloha.host[187] txrate 1000Bps
attr unit Bps
par Aloha.host[188] typename "\"Host\""
par Aloha.host[188] arrrate 0.6
par Aloha.host[188] packet_size 1B
attr unit B
par Aloha.host[188] x 109.745m
attr unit m
par Aloha.host[188] y 93.5854m
attr unit m
par Aloha.host[188] txrate 1000Bps
attr unit Bps
par Aloha.host[189] typename "\"Host\""
par Aloha.host[189] arrrate 0.6
par Aloha.host[189] packet_size 1B
attr unit B
par Aloha.host[189] x 128.47m
attr unit m
par Aloha.host[189] y 172.296m
attr unit m
par Aloha.host[189] txrate 1000Bps
attr unit Bps
par Aloha.host[190] typename "\"Host\""
par Aloha.host[190] arrrate 0.6
par Aloha.host[190] packet_size 1B
attr unit B
par Aloha.host[190] x 145.358m
attr unit m
par Aloha.host[190] y 12.1977m
attr unit m
par Aloha.host[190] txrate 1000Bps
attr unit Bps
par Aloha.host[191] typename "\"Host\""
par Aloha.host[191] arrrate 0.6
par Aloha.host[191] packet_size 1B
attr unit B
par Aloha.host[191] x 123.163m
attr unit m
par Aloha.host[191] y 29.1621m
attr unit m
par Aloha.host[191] txrate 1000Bps
attr unit Bps
par Aloha.host[192] typename "\"Host\""
par Aloha.host[192] arrrate 0.6
par Aloha.host[192] packet_size 1B
attr unit B
par Aloha.host[192] x 117.7m
attr unit m
par Aloha.host[192] y 129.708m
attr unit m
par Aloha.host[192] txrate 1000Bps
attr unit Bps
par Aloha.host[193] typename "\"Host\""
par Aloha.host[193] arrrate 0.6
par Aloha.host[193] packet_size 1B
attr unit B
par Aloha.host[193] x 121.001m
attr unit m
par Aloha.host[193] y 77.3709m
attr unit m
par Aloha.host[193] txrate 1000Bps
attr unit Bps
par Aloha.host[194] typename "\"Host\""
par Aloha.host[194] arrrate 0.6
par Aloha.host[194] packet_size 1B
attr unit B
par Aloha.host[194] x 70.9571m
attr unit m
par Aloha.host[194] y 92.4627m
attr unit m
par Aloha.host[194] txrate 1000Bps
attr unit Bps
par Aloha.host[195] typename "\"Host\""
par Aloha.host[195] arrrate 0.6
par Aloha.host[195] packet_size 1B
attr unit B
par Aloha.host[195] x 155.476m
attr unit m
par Aloha.host[195] y 21.4295m
attr unit m
par Aloha.host[195] txrate 1000Bps
attr unit Bps
par Aloha.host[196] typename "\"Host\""
par Aloha.host[196] arrrate 0.6
par Aloha.host[196] packet_size 1B
attr unit B
par Aloha.host[196] x 120.921m
attr unit m
par Aloha.host[196] y 35.5323m
attr unit m
par Aloha.host[196] txrate 1000Bps
attr unit Bps
par Aloha.host[197] typename "\"Host\""
par Aloha.host[197] arrrate 0.6
par Aloha.host[197] packet_size 1B
attr unit B
par Aloha.host[197] x 61.8462m
attr unit m
par Aloha.host[197] y 114.971m
attr unit m
par Aloha.host[197] txrate 1000Bps
attr unit Bps
par Aloha.host[198] typename "\"Host\""
par Aloha.host[198] arrrate 0.6
par Aloha.host[198] packet_size 1B
attr unit B
par Aloha.host[198] x 49.1262m
attr unit m
par Aloha.host[198] y 110.194m
attr unit m
par Aloha.host[198] txrate 1000Bps
attr unit Bps
par Aloha.host[199] typename "\"Host\""
par Aloha.host[199] arrrate 0.6
par Aloha.host[199] packet_size 1B
attr unit B
par Aloha.host[199] x 14.2532m
attr unit m
par Aloha.host[199] y 93.7821m
attr unit m
par Aloha.host[199] txrate 1000Bps
attr unit Bps
par Aloha.host[200] typename "\"Host\""
par Aloha.host[200] arrrate 0.6
par Aloha.host[200] packet_size 1B
attr unit B
par Aloha.host[200] x 69.5458m
attr unit m
par Aloha.host[200] y 168.723m
attr unit m
par Aloha.host[200] txrate 1000Bps
attr unit Bps
par Aloha.host[201] typename "\"Host\""
par Aloha.host[201] arrrate 0.6
par Aloha.host[201] packet_size 1B
attr unit B
par Aloha.host[201] x 2.56961m
attr unit m
par Aloha.host[201] y 59.7651m
attr unit m
par Aloha.host[201] txrate 1000Bps
attr unit Bps
par Aloha.host[202] typename "\"Host\""
par Aloha.host[202] arrrate 0.6
par Aloha.host[202] packet_size 1B
attr unit B
par Aloha.host[202] x 33.1284m
attr unit m
par Aloha.host[202] y 126.632m
attr unit m
par Aloha.host[202] txrate 1000Bps
attr unit Bps
par Aloha.host[203] typename "\"Host\""
par Aloha.host[203] arrrate 0.6
par Aloha.host[203] packet_size 1B
attr unit B
par Aloha.host[203] x 12.0733m
attr unit m
par Aloha.host[203] y 81.3159m
attr unit m
par Aloha.host[203] txrate 1000Bps
attr unit Bps
par Aloha.host[204] typename "\"Host\""
par Aloha.host[204] arrrate 0.6
par Aloha.host[204] packet_size 1B
attr unit B
par Aloha.host[204] x 55.6312m
attr unit m
par Aloha.host[204] y 95.2094m
attr unit m
par Aloha.host[204] txrate 1000Bps
attr unit Bps
par Aloha.host[205] typename "\"Host\""
par Aloha.host[205] arrrate 0.6
par Aloha.host[205] packet_size 1B
attr unit B
par Aloha.host[205] x 69.6664m
attr unit m
par Aloha.host[205] y 173.978m
attr unit m
par Aloha.host[205] txrate 1000Bps
attr unit Bps
par Aloha.host[206] typename "\"Host\""
par Aloha.host[206] arrrate 0.6
par Aloha.host[206] packet_size 1B
attr unit B
par Aloha.host[206] x 118.244m
attr unit m
par Aloha.host[206] y 75.5256m
attr unit m
par Aloha.host[206] txrate 1000Bps
attr unit Bps
par Aloha.host[207] typename "\"Host\""
par Aloha.host[207] arrrate 0.6
par Aloha.host[207] packet_size 1B
attr unit B
par Aloha.host[207] x 155.003m
attr unit m
par Aloha.host[207] y 96.723m
attr unit m
par Aloha.host[207] txrate 1000Bps
attr unit Bps
par Aloha.host[208] typename "\"Host\""
par Aloha.host[208] arrrate 0.6
par Aloha.host[208] packet_size 1B
attr unit B
par Aloha.host[208] x 124.951m
attr unit m
par Aloha.host[208] y 28.0772m
attr unit m
par Aloha.host[208] txrate 1000Bps
attr unit Bps
par Aloha.host[209] typename "\"Host\""
par Aloha.host[209] arrrate 0.6
par Aloha.host[209] packet_size 1B
attr unit B
par Aloha.host[209] x 31.9362m
attr unit m
par Aloha.host[209] y 15.0886m
attr unit m
par Aloha.host[209] txrate 1000Bps
attr unit Bps
par Aloha.host[210] typename "\"Host\""
par Aloha.host[210] arrrate 0.6
par Aloha.host[210] packet_size 1B
attr unit B
par Aloha.host[210] x 178.753m
attr unit m
par Aloha.host[210] y 137.618m
attr unit m
par Aloha.host[210] txrate 1000Bps
attr unit Bps
par Aloha.host[211] typename "\"Host\""
par Aloha.host[211] arrrate 0.6
par Aloha.host[211] packet_size 1B
attr unit B
par Aloha.host[211] x 146.118m
attr unit m
par Aloha.host[211] y 164.013m
attr unit m
par Aloha.host[211] txrate 1000Bps
attr unit Bps
par Aloha.host[212] typename "\"Host\""
par Aloha.host[212] arrrate 0.6
par Aloha.host[212] packet_size 1B
attr unit B
par Aloha.host[212] x 99.5536m
attr unit m
par Aloha.host[212] y 123.34m
attr unit m
par Aloha.host[212] txrate 1000Bps
attr unit Bps
par Aloha.host[213] typename "\"Host\""
par Aloha.host[213] arrrate 0.6
par Aloha.host[213] packet_size 1B
attr unit B
par Aloha.host[213] x 128.728m
attr unit m
par Aloha.host[213] y 179.216m
attr unit m
par Aloha.host[213] txrate 1000Bps
attr unit Bps
par Aloha.host[214] typename "\"Host\""
par Aloha.host[214] arrrate 0.6
par Aloha.host[214] packet_size 1B
attr unit B
par Aloha.host[214] x 101.895m
attr unit m
par Aloha.host[214] y 126.106m
attr unit m
par Aloha.host[214] txrate 1000Bps
attr unit Bps
par Aloha.host[215] typename "\"Host\""
par Aloha.host[215] arrrate 0.6
par Aloha.host[215] packet_size 1B
attr unit B
par Aloha.host[215] x 33.6416m
attr unit m
par Aloha.host[215] y 160.065m
attr unit m
par Aloha.host[215] txrate 1000Bps
attr unit Bps
par Aloha.host[216] typename "\"Host\""
par Aloha.host[216] arrrate 0.6
par Aloha.host[216] packet_size 1B
attr unit B
par Aloha.host[216] x 128.293m
attr unit m
par Aloha.host[216] y 72.4129m
attr unit m
par Aloha.host[216] txrate 1000Bps
attr unit Bps
par Aloha.host[217] typename "\"Host\""
par Aloha.host[217] arrrate 0.6
par Aloha.host[217] packet_size 1B
attr unit B
par Aloha.host[217] x 197.634m
attr unit m
par Aloha.host[217] y 5.54264m
attr unit m
par Aloha.host[217] txrate 1000Bps
attr unit Bps
par Aloha.host[218] typename "\"Host\""
par Aloha.host[218] arrrate 0.6
par Aloha.host[218] packet_size 1B
attr unit B
par Aloha.host[218] x 154.066m
attr unit m
par Aloha.host[218] y 185.866m
attr unit m
par Aloha.host[218] txrate 1000Bps
attr unit Bps
par Aloha.host[219] typename "\"Host\""
par Aloha.host[219] arrrate 0.6
par Aloha.host[219] packet_size 1B
attr unit B
par Aloha.host[219] x 36.2962m
attr unit m
par Aloha.host[219] y 112.541m
attr unit m
par Aloha.host[219] txrate 1000Bps
attr unit Bps
par Aloha.host[220] typename "\"Host\""
par Aloha.host[220] arrrate 0.6
par Aloha.host[220] packet_size 1B
attr unit B
par Aloha.host[220] x 23.9538m
attr unit m
par Aloha.host[220] y 170.198m
attr unit m
par Aloha.host[220] txrate 1000Bps
attr unit Bps
par Aloha.host[221] typename "\"Host\""
par Aloha.host[221] arrrate 0.6
par Aloha.host[221] packet_size 1B
attr unit B
par Aloha.host[221] x 186.068m
attr unit m
par Aloha.host[221] y 85.8295m
attr unit m
par Aloha.host[221] txrate 1000Bps
attr unit Bps
par Aloha.host[222] typename "\"Host\""
par Aloha.host[222] arrrate 0.6
par Aloha.host[222] packet_size 1B
attr unit B
par Aloha.host[222] x 182.019m
attr unit m
par Aloha.host[222] y 142.166m
attr unit m
par Aloha.host[222] txrate 1000Bps
attr unit Bps
par Aloha.host[223] typename "\"Host\""
par Aloha.host[223] arrrate 0.6
par Aloha.host[223] packet_size 1B
attr unit B
par Aloha.host[223] x 149.837m
attr unit m
par Aloha.host[223] y 173.073m
attr unit m
par Aloha.host[223] txrate 1000Bps
attr unit Bps
par Aloha.host[224] typename "\"Host\""
par Aloha.host[224] arrrate 0.6
par Aloha.host[224] packet_size 1B
attr unit B
par Aloha.host[224] x 152.106m
attr unit m
par Aloha.host[224] y 85.415m
attr unit m
par Aloha.host[224] txrate 1000Bps
attr unit Bps
par Aloha.host[225] typename "\"Host\""
par Aloha.host[225] arrrate 0.6
par Aloha.host[225] packet_size 1B
attr unit B
par Aloha.host[225] x 28.5752m
attr unit m
par Aloha.host[225] y 195.51m
attr unit m
par Aloha.host[225] txrate 1000Bps
attr unit Bps
par Aloha.host[226] typename "\"Host\""
par Aloha.host[226] arrrate 0.6
par Aloha.host[226] packet_size 1B
attr unit B
par Aloha.host[226] x 162.389m
attr unit m
par Aloha.host[226] y 130.727m
attr unit m
par Aloha.host[226] txrate 1000Bps
attr unit Bps
par Aloha.host[227] typename "\"Host\""
par Aloha.host[227] arrrate 0.6
par Aloha.host[227] packet_size 1B
attr unit B
par Aloha.host[227] x 38.4559m
attr unit m
par Aloha.host[227] y 44.0849m
attr unit m
par Aloha.host[227] txrate 1000Bps
attr unit Bps
par Aloha.host[228] typename "\"Host\""
par Aloha.host[228] arrrate 0.6
par Aloha.host[228] packet_size 1B
attr unit B
par Aloha.host[228] x 30.949m
attr unit m
par Aloha.host[228] y 4.3499m
attr unit m
par Aloha.host[228] txrate 1000Bps
attr unit Bps
par Aloha.host[229] typename "\"Host\""
par Aloha.host[229] arrrate 0.6
par Aloha.host[229] packet_size 1B
attr unit B
par Aloha.host[229] x 81.4158m
attr unit m
par Aloha.host[229] y 132.184m
attr unit m
par Aloha.host[229] txrate 1000Bps
attr unit Bps
par Aloha.host[230] typename "\"Host\""
par Aloha.host[230] arrrate 0.6
par Aloha.host[230] packet_size 1B
attr unit B
par Aloha.host[230] x 0.0765799m
attr unit m
par Aloha.host[230] y 42.4132m
attr unit m
par Aloha.host[230] txrate 1000Bps
attr unit Bps
par Aloha.host[231] typename "\"Host\""
par Aloha.host[231] arrrate 0.6
par Aloha.host[231] packet_size 1B
attr unit B
par Aloha.host[231] x 169.104m
attr unit m
par Aloha.host[231] y 53.8056m
attr unit m
par Aloha.host[231] txrate 1000Bps
attr unit Bps
par Aloha.host[232] typename "\"Host\""
par Aloha.host[232] arrrate 0.6
par Aloha.host[232] packet_size 1B
attr unit B
par Aloha.host[232] x 32.2265m
attr unit m
par Aloha.host[232] y 158.978m
attr unit m
par Aloha.host[232] txrate 1000Bps
attr unit Bps
par Aloha.host[233] typename "\"Host\""
par Aloha.host[233] arrrate 0.6
par Aloha.host[233] packet_size 1B
attr unit B
par Aloha.host[233] x 147.85m
attr unit m
par Aloha.host[233] y 11.9246m
attr unit m
par Aloha.host[233] txrate 1000Bps
attr unit Bps
par Aloha.host[234] typename "\"Host\""
par Aloha.host[234] arrrate 0.6
par Aloha.host[234] packet_size 1B
attr unit B
par Aloha.host[234] x 116.582m
attr unit m
par Aloha.host[234] y 67.9734m
attr unit m
par Aloha.host[234] txrate 1000Bps
attr unit Bps
par Aloha.host[235] typename "\"Host\""
par Aloha.host[235] arrrate 0.6
par Aloha.host[235] packet_size 1B
attr unit B
par Aloha.host[235] x 154.052m
attr unit m
par Aloha.host[235] y 113.621m
attr unit m
par Aloha.host[235] txrate 1000Bps
attr unit Bps
par Aloha.host[236] typename "\"Host\""
par Aloha.host[236] arrrate 0.6
par Aloha.host[236] packet_size 1B
attr unit B
par Aloha.host[236] x 119.999m
attr unit m
par Aloha.host[236] y 131.011m
attr unit m
par Aloha.host[236] txrate 1000Bps
attr unit Bps
par Aloha.host[237] typename "\"Host\""
par Aloha.host[237] arrrate 0.6
par Aloha.host[237] packet_size 1B
attr unit B
par Aloha.host[237] x 192.293m
attr unit m
par Aloha.host[237] y 99.2291m
attr unit m
par Aloha.host[237] txrate 1000Bps
attr unit Bps
par Aloha.host[238] typename "\"Host\""
par Aloha.host[238] arrrate 0.6
par Aloha.host[238] packet_size 1B
attr unit B
par Aloha.host[238] x 75.9557m
attr unit m
par Aloha.host[238] y 114.242m
attr unit m
par Aloha.host[238] txrate 1000Bps
attr unit Bps
par Aloha.host[239] typename "\"Host\""
par Aloha.host[239] arrrate 0.6
par Aloha.host[239] packet_size 1B
attr unit B
par Aloha.host[239] x 99.4021m
attr unit m
par Aloha.host[239] y 195.912m
attr unit m
par Aloha.host[239] txrate 1000Bps
attr unit Bps
par Aloha.host[240] typename "\"Host\""
par Aloha.host[240] arrrate 0.6
par Aloha.host[240] packet_size 1B
attr unit B
par Aloha.host[240] x 67.6677m
attr unit m
par Aloha.host[240] y 151.945m
attr unit m
par Aloha.host[240] txrate 1000Bps
attr unit Bps
par Aloha.host[241] typename "\"Host\""
par Aloha.host[241] arrrate 0.6
par Aloha.host[241] packet_size 1B
attr unit B
par Aloha.host[241] x 148.55m
attr unit m
par Aloha.host[241] y 199.36m
attr unit m
par Aloha.host[241] txrate 1000Bps
attr unit Bps
par Aloha.host[242] typename "\"Host\""
par Aloha.host[242] arrrate 0.6
par Aloha.host[242] packet_size 1B
attr unit B
par Aloha.host[242] x 60.0992m
attr unit m
par Aloha.host[242] y 182.875m
attr unit m
par Aloha.host[242] txrate 1000Bps
attr unit Bps
par Aloha.host[243] typename "\"Host\""
par Aloha.host[243] arrrate 0.6
par Aloha.host[243] packet_size 1B
attr unit B
par Aloha.host[243] x 159.757m
attr unit m
par Aloha.host[243] y 185.984m
attr unit m
par Aloha.host[243] txrate 1000Bps
attr unit Bps
par Aloha.host[244] typename "\"Host\""
par Aloha.host[244] arrrate 0.6
par Aloha.host[244] packet_size 1B
attr unit B
par Aloha.host[244] x 17.19m
attr unit m
par Aloha.host[244] y 20.7496m
attr unit m
par Aloha.host[244] txrate 1000Bps
attr unit Bps
par Aloha.host[245] typename "\"Host\""
par Aloha.host[245] arrrate 0.6
par Aloha.host[245] packet_size 1B
attr unit B
par Aloha.host[245] x 47.1327m
attr unit m
par Aloha.host[245] y 3.92694m
attr unit m
par Aloha.host[245] txrate 1000Bps
attr unit Bps
par Aloha.host[246] typename "\"Host\""
par Aloha.host[246] arrrate 0.6
par Aloha.host[246] packet_size 1B
attr unit B
par Aloha.host[246] x 87.6338m
attr unit m
par Aloha.host[246] y 49.175m
attr unit m
par Aloha.host[246] txrate 1000Bps
attr unit Bps
par Aloha.host[247] typename "\"Host\""
par Aloha.host[247] arrrate 0.6
par Aloha.host[247] packet_size 1B
attr unit B
par Aloha.host[247] x 25.2092m
attr unit m
par Aloha.host[247] y 6.15209m
attr unit m
par Aloha.host[247] txrate 1000Bps
attr unit Bps
par Aloha.host[248] typename "\"Host\""
par Aloha.host[248] arrrate 0.6
par Aloha.host[248] packet_size 1B
attr unit B
par Aloha.host[248] x 40.6064m
attr unit m
par Aloha.host[248] y 34.5361m
attr unit m
par Aloha.host[248] txrate 1000Bps
attr unit Bps
par Aloha.host[249] typename "\"Host\""
par Aloha.host[249] arrrate 0.6
par Aloha.host[249] packet_size 1B
attr unit B
par Aloha.host[249] x 168.309m
attr unit m
par Aloha.host[249] y 165.552m
attr unit m
par Aloha.host[249] txrate 1000Bps
attr unit Bps
par Aloha.host[250] typename "\"Host\""
par Aloha.host[250] arrrate 0.6
par Aloha.host[250] packet_size 1B
attr unit B
par Aloha.host[250] x 74.4865m
attr unit m
par Aloha.host[250] y 186.471m
attr unit m
par Aloha.host[250] txrate 1000Bps
attr unit Bps
par Aloha.host[251] typename "\"Host\""
par Aloha.host[251] arrrate 0.6
par Aloha.host[251] packet_size 1B
attr unit B
par Aloha.host[251] x 43.7363m
attr unit m
par Aloha.host[251] y 176.583m
attr unit m
par Aloha.host[251] txrate 1000Bps
attr unit Bps
par Aloha.host[252] typename "\"Host\""
par Aloha.host[252] arrrate 0.6
par Aloha.host[252] packet_size 1B
attr unit B
par Aloha.host[252] x 169.227m
attr unit m
par Aloha.host[252] y 3.11382m
attr unit m
par Aloha.host[252] txrate 1000Bps
attr unit Bps
par Aloha.host[253] typename "\"Host\""
par Aloha.host[253] arrrate 0.6
par Aloha.host[253] packet_size 1B
attr unit B
par Aloha.host[253] x 115.075m
attr unit m
par Aloha.host[253] y 58.6001m
attr unit m
par Aloha.host[253] txrate 1000Bps
attr unit Bps
par Aloha.host[254] typename "\"Host\""
par Aloha.host[254] arrrate 0.6
par Aloha.host[254] packet_size 1B
attr unit B
par Aloha.host[254] x 126.743m
attr unit m
par Aloha.host[254] y 155.623m
attr unit m
par Aloha.host[254] txrate 1000Bps
attr unit Bps
par Aloha.host[255] typename "\"Host\""
par Aloha.host[255] arrrate 0.6
par Aloha.host[255] packet_size 1B
attr unit B
par Aloha.host[255] x 177.786m
attr unit m
par Aloha.host[255] y 97.3114m
attr unit m
par Aloha.host[255] txrate 1000Bps
attr unit Bps
par Aloha.host[256] typename "\"Host\""
par Aloha.host[256] arrrate 0.6
par Aloha.host[256] packet_size 1B
attr unit B
par Aloha.host[256] x 142.792m
attr unit m
par Aloha.host[256] y 155.946m
attr unit m
par Aloha.host[256] txrate 1000Bps
attr unit Bps
par Aloha.host[257] typename "\"Host\""
par Aloha.host[257] arrrate 0.6
par Aloha.host[257] packet_size 1B
attr unit B
par Aloha.host[257] x 53.0225m
attr unit m
par Aloha.host[257] y 199.337m
attr unit m
par Aloha.host[257] txrate 1000Bps
attr unit Bps
par Aloha.host[258] typename "\"Host\""
par Aloha.host[258] arrrate 0.6
par Aloha.host[258] packet_size 1B
attr unit B
par Aloha.host[258] x 1.94166m
attr unit m
par Aloha.host[258] y 17.4397m
attr unit m
par Aloha.host[258] txrate 1000Bps
attr unit Bps
par Aloha.host[259] typename "\"Host\""
par Aloha.host[259] arrrate 0.6
par Aloha.host[259] packet_size 1B
attr unit B
par Aloha.host[259] x 109.893m
attr unit m
par Aloha.host[259] y 31.4002m
attr unit m
par Aloha.host[259] txrate 1000Bps
attr unit Bps
par Aloha.host[260] typename "\"Host\""
par Aloha.host[260] arrrate 0.6
par Aloha.host[260] packet_size 1B
attr unit B
par Aloha.host[260] x 141.505m
attr unit m
par Aloha.host[260] y 91.8216m
attr unit m
par Aloha.host[260] txrate 1000Bps
attr unit Bps
par Aloha.host[261] typename "\"Host\""
par Aloha.host[261] arrrate 0.6
par Aloha.host[261] packet_size 1B
attr unit B
par Aloha.host[261] x 161.139m
attr unit m
par Aloha.host[261] y 193.546m
attr unit m
par Aloha.host[261] txrate 1000Bps
attr unit Bps
par Aloha.host[262] typename "\"Host\""
par Aloha.host[262] arrrate 0.6
par Aloha.host[262] packet_size 1B
attr unit B
par Aloha.host[262] x 38.1313m
attr unit m
par Aloha.host[262] y 0.980696m
attr unit m
par Aloha.host[262] txrate 1000Bps
attr unit Bps
par Aloha.host[263] typename "\"Host\""
par Aloha.host[263] arrrate 0.6
par Aloha.host[263] packet_size 1B
attr unit B
par Aloha.host[263] x 126.843m
attr unit m
par Aloha.host[263] y 38.6383m
attr unit m
par Aloha.host[263] txrate 1000Bps
attr unit Bps
par Aloha.host[264] typename "\"Host\""
par Aloha.host[264] arrrate 0.6
par Aloha.host[264] packet_size 1B
attr unit B
par Aloha.host[264] x 187.711m
attr unit m
par Aloha.host[264] y 84.7792m
attr unit m
par Aloha.host[264] txrate 1000Bps
attr unit Bps
par Aloha.host[265] typename "\"Host\""
par Aloha.host[265] arrrate 0.6
par Aloha.host[265] packet_size 1B
attr unit B
par Aloha.host[265] x 51.6373m
attr unit m
par Aloha.host[265] y 178.788m
attr unit m
par Aloha.host[265] txrate 1000Bps
attr unit Bps
par Aloha.host[266] typename "\"Host\""
par Aloha.host[266] arrrate 0.6
par Aloha.host[266] packet_size 1B
attr unit B
par Aloha.host[266] x 58.4961m
attr unit m
par Aloha.host[266] y 155.207m
attr unit m
par Aloha.host[266] txrate 1000Bps
attr unit Bps
par Aloha.host[267] typename "\"Host\""
par Aloha.host[267] arrrate 0.6
par Aloha.host[267] packet_size 1B
attr unit B
par Aloha.host[267] x 85.1288m
attr unit m
par Aloha.host[267] y 46.5419m
attr unit m
par Aloha.host[267] txrate 1000Bps
attr unit Bps
par Aloha.host[268] typename "\"Host\""
par Aloha.host[268] arrrate 0.6
par Aloha.host[268] packet_size 1B
attr unit B
par Aloha.host[268] x 114.236m
attr unit m
par Aloha.host[268] y 37.6792m
attr unit m
par Aloha.host[268] txrate 1000Bps
attr unit Bps
par Aloha.host[269] typename "\"Host\""
par Aloha.host[269] arrrate 0.6
par Aloha.host[269] packet_size 1B
attr unit B
par Aloha.host[269] x 198.011m
attr unit m
par Aloha.host[269] y 192.161m
attr unit m
par Aloha.host[269] txrate 1000Bps
attr unit Bps
par Aloha.host[270] typename "\"Host\""
par Aloha.host[270] arrrate 0.6
par Aloha.host[270] packet_size 1B
attr unit B
par Aloha.host[270] x 117.64m
attr unit m
par Aloha.host[270] y 125.539m
attr unit m
par Aloha.host[270] txrate 1000Bps
attr unit Bps
par Aloha.host[271] typename "\"Host\""
par Aloha.host[271] arrrate 0.6
par Aloha.host[271] packet_size 1B
attr unit B
par Aloha.host[271] x 177.58m
attr unit m
par Aloha.host[271] y 150.588m
attr unit m
par Aloha.host[271] txrate 1000Bps
attr unit Bps
par Aloha.host[272] typename "\"Host\""
par Aloha.host[272] arrrate 0.6
par Aloha.host[272] packet_size 1B
attr unit B
par Aloha.host[272] x 131.242m
attr unit m
par Aloha.host[272] y 192.254m
attr unit m
par Aloha.host[272] txrate 1000Bps
attr unit Bps
par Aloha.host[273] typename "\"Host\""
par Aloha.host[273] arrrate 0.6
par Aloha.host[273] packet_size 1B
attr unit B
par Aloha.host[273] x 94.5558m
attr unit m
par Aloha.host[273] y 65.8886m
attr unit m
par Aloha.host[273] txrate 1000Bps
attr unit Bps
par Aloha.host[274] typename "\"Host\""
par Aloha.host[274] arrrate 0.6
par Aloha.host[274] packet_size 1B
attr unit B
par Aloha.host[274] x 61.1097m
attr unit m
par Aloha.host[274] y 90.7264m
attr unit m
par Aloha.host[274] txrate 1000Bps
attr unit Bps
par Aloha.host[275] typename "\"Host\""
par Aloha.host[275] arrrate 0.6
par Aloha.host[275] packet_size 1B
attr unit B
par Aloha.host[275] x 70.0359m
attr unit m
par Aloha.host[275] y 72.8274m
attr unit m
par Aloha.host[275] txrate 1000Bps
attr unit Bps
par Aloha.host[276] typename "\"Host\""
par Aloha.host[276] arrrate 0.6
par Aloha.host[276] packet_size 1B
attr unit B
par Aloha.host[276] x 155.427m
attr unit m
par Aloha.host[276] y 11.2622m
attr unit m
par Aloha.host[276] txrate 1000Bps
attr unit Bps
par Aloha.host[277] typename "\"Host\""
par Aloha.host[277] arrrate 0.6
par Aloha.host[277] packet_size 1B
attr unit B
par Aloha.host[277] x 35.5018m
attr unit m
par Aloha.host[277] y 6.15003m
attr unit m
par Aloha.host[277] txrate 1000Bps
attr unit Bps
par Aloha.host[278] typename "\"Host\""
par Aloha.host[278] arrrate 0.6
par Aloha.host[278] packet_size 1B
attr unit B
par Aloha.host[278] x 27.5871m
attr unit m
par Aloha.host[278] y 82.9584m
attr unit m
par Aloha.host[278] txrate 1000Bps
attr unit Bps
par Aloha.host[279] typename "\"Host\""
par Aloha.host[279] arrrate 0.6
par Aloha.host[279] packet_size 1B
attr unit B
par Aloha.host[279] x 42.609m
attr unit m
par Aloha.host[279] y 13.8885m
attr unit m
par Aloha.host[279] txrate 1000Bps
attr unit Bps
par Aloha.host[280] typename "\"Host\""
par Aloha.host[280] arrrate 0.6
par Aloha.host[280] packet_size 1B
attr unit B
par Aloha.host[280] x 133.783m
attr unit m
par Aloha.host[280] y 32.9087m
attr unit m
par Aloha.host[280] txrate 1000Bps
attr unit Bps
par Aloha.host[281] typename "\"Host\""
par Aloha.host[281] arrrate 0.6
par Aloha.host[281] packet_size 1B
attr unit B
par Aloha.host[281] x 74.281m
attr unit m
par Aloha.host[281] y 31.2747m
attr unit m
par Aloha.host[281] txrate 1000Bps
attr unit Bps
par Aloha.host[282] typename "\"Host\""
par Aloha.host[282] arrrate 0.6
par Aloha.host[282] packet_size 1B
attr unit B
par Aloha.host[282] x 41.3005m
attr unit m
par Aloha.host[282] y 69.0604m
attr unit m
par Aloha.host[282] txrate 1000Bps
attr unit Bps
par Aloha.host[283] typename "\"Host\""
par Aloha.host[283] arrrate 0.6
par Aloha.host[283] packet_size 1B
attr unit B
par Aloha.host[283] x 66.1409m
attr unit m
par Aloha.host[283] y 127.635m
attr unit m
par Aloha.host[283] txrate 1000Bps
attr unit Bps
par Aloha.host[284] typename "\"Host\""
par Aloha.host[284] arrrate 0.6
par Aloha.host[284] packet_size 1B
attr unit B
par Aloha.host[284] x 16.3259m
attr unit m
par Aloha.host[284] y 80.9988m
attr unit m
par Aloha.host[284] txrate 1000Bps
attr unit Bps
par Aloha.host[285] typename "\"Host\""
par Aloha.host[285] arrrate 0.6
par Aloha.host[285] packet_size 1B
attr unit B
par Aloha.host[285] x 87.3071m
attr unit m
par Aloha.host[285] y 35.5871m
attr unit m
par Aloha.host[285] txrate 1000Bps
attr unit Bps
par Aloha.host[286] typename "\"Host\""
par Aloha.host[286] arrrate 0.6
par Aloha.host[286] packet_size 1B
attr unit B
par Aloha.host[286] x 162.243m
attr unit m
par Aloha.host[286] y 18.5786m
attr unit m
par Aloha.host[286] txrate 1000Bps
attr unit Bps
par Aloha.host[287] typename "\"Host\""
par Aloha.host[287] arrrate 0.6
par Aloha.host[287] packet_size 1B
attr unit B
par Aloha.host[287] x 89.1585m
attr unit m
par Aloha.host[287] y 60.1085m
attr unit m
par Aloha.host[287] txrate 1000Bps
attr unit Bps
par Aloha.host[288] typename "\"Host\""
par Aloha.host[288] arrrate 0.6
par Aloha.host[288] packet_size 1B
attr unit B
par Aloha.host[288] x 89.462m
attr unit m
par Aloha.host[288] y 116.061m
attr unit m
par Aloha.host[288] txrate 1000Bps
attr unit Bps
par Aloha.host[289] typename "\"Host\""
par Aloha.host[289] arrrate 0.6
par Aloha.host[289] packet_size 1B
attr unit B
par Aloha.host[289] x 5.50569m
attr unit m
par Aloha.host[289] y 164.661m
attr unit m
par Aloha.host[289] txrate 1000Bps
attr unit Bps
par Aloha.host[290] typename "\"Host\""
par Aloha.host[290] arrrate 0.6
par Aloha.host[290] packet_size 1B
attr unit B
par Aloha.host[290] x 55.7955m
attr unit m
par Aloha.host[290] y 61.7096m
attr unit m
par Aloha.host[290] txrate 1000Bps
attr unit Bps
par Aloha.host[291] typename "\"Host\""
par Aloha.host[291] arrrate 0.6
par Aloha.host[291] packet_size 1B
attr unit B
par Aloha.host[291] x 15.0341m
attr unit m
par Aloha.host[291] y 141.482m
attr unit m
par Aloha.host[291] txrate 1000Bps
attr unit Bps
par Aloha.host[292] typename "\"Host\""
par Aloha.host[292] arrrate 0.6
par Aloha.host[292] packet_size 1B
attr unit B
par Aloha.host[292] x 9.54767m
attr unit m
par Aloha.host[292] y 102.919m
attr unit m
par Aloha.host[292] txrate 1000Bps
attr unit Bps
par Aloha.host[293] typename "\"Host\""
par Aloha.host[293] arrrate 0.6
par Aloha.host[293] packet_size 1B
attr unit B
par Aloha.host[293] x 172.717m
attr unit m
par Aloha.host[293] y 92.2357m
attr unit m
par Aloha.host[293] txrate 1000Bps
attr unit Bps
par Aloha.host[294] typename "\"Host\""
par Aloha.host[294] arrrate 0.6
par Aloha.host[294] packet_size 1B
attr unit B
par Aloha.host[294] x 142.864m
attr unit m
par Aloha.host[294] y 8.42661m
attr unit m
par Aloha.host[294] txrate 1000Bps
attr unit Bps
par Aloha.host[295] typename "\"Host\""
par Aloha.host[295] arrrate 0.6
par Aloha.host[295] packet_size 1B
attr unit B
par Aloha.host[295] x 166.088m
attr unit m
par Aloha.host[295] y 78.0088m
attr unit m
par Aloha.host[295] txrate 1000Bps
attr unit Bps
par Aloha.host[296] typename "\"Host\""
par Aloha.host[296] arrrate 0.6
par Aloha.host[296] packet_size 1B
attr unit B
par Aloha.host[296] x 26.5812m
attr unit m
par Aloha.host[296] y 6.01191m
attr unit m
par Aloha.host[296] txrate 1000Bps
attr unit Bps
par Aloha.host[297] typename "\"Host\""
par Aloha.host[297] arrrate 0.6
par Aloha.host[297] packet_size 1B
attr unit B
par Aloha.host[297] x 73.0573m
attr unit m
par Aloha.host[297] y 133.859m
attr unit m
par Aloha.host[297] txrate 1000Bps
attr unit Bps
par Aloha.host[298] typename "\"Host\""
par Aloha.host[298] arrrate 0.6
par Aloha.host[298] packet_size 1B
attr unit B
par Aloha.host[298] x 182.644m
attr unit m
par Aloha.host[298] y 139.875m
attr unit m
par Aloha.host[298] txrate 1000Bps
attr unit Bps
par Aloha.host[299] typename "\"Host\""
par Aloha.host[299] arrrate 0.6
par Aloha.host[299] packet_size 1B
attr unit B
par Aloha.host[299] x 86.6776m
attr unit m
par Aloha.host[299] y 14.2137m
attr unit m
par Aloha.host[299] txrate 1000Bps
attr unit Bps
par Aloha.host[300] typename "\"Host\""
par Aloha.host[300] arrrate 0.6
par Aloha.host[300] packet_size 1B
attr unit B
par Aloha.host[300] x 185.13m
attr unit m
par Aloha.host[300] y 54.2344m
attr unit m
par Aloha.host[300] txrate 1000Bps
attr unit Bps
par Aloha.host[301] typename "\"Host\""
par Aloha.host[301] arrrate 0.6
par Aloha.host[301] packet_size 1B
attr unit B
par Aloha.host[301] x 192.274m
attr unit m
par Aloha.host[301] y 190.019m
attr unit m
par Aloha.host[301] txrate 1000Bps
attr unit Bps
par Aloha.host[302] typename "\"Host\""
par Aloha.host[302] arrrate 0.6
par Aloha.host[302] packet_size 1B
attr unit B
par Aloha.host[302] x 1.32162m
attr unit m
par Aloha.host[302] y 48.1479m
attr unit m
par Aloha.host[302] txrate 1000Bps
attr unit Bps
par Aloha.host[303] typename "\"Host\""
par Aloha.host[303] arrrate 0.6
par Aloha.host[303] packet_size 1B
attr unit B
par Aloha.host[303] x 86.5861m
attr unit m
par Aloha.host[303] y 113.863m
attr unit m
par Aloha.host[303] txrate 1000Bps
attr unit Bps
par Aloha.host[304] typename "\"Host\""
par Aloha.host[304] arrrate 0.6
par Aloha.host[304] packet_size 1B
attr unit B
par Aloha.host[304] x 116.623m
attr unit m
par Aloha.host[304] y 42.2988m
attr unit m
par Aloha.host[304] txrate 1000Bps
attr unit Bps
par Aloha.host[305] typename "\"Host\""
par Aloha.host[305] arrrate 0.6
par Aloha.host[305] packet_size 1B
attr unit B
par Aloha.host[305] x 69.7655m
attr unit m
par Aloha.host[305] y 41.508m
attr unit m
par Aloha.host[305] txrate 1000Bps
attr unit Bps
par Aloha.host[306] typename "\"Host\""
par Aloha.host[306] arrrate 0.6
par Aloha.host[306] packet_size 1B
attr unit B
par Aloha.host[306] x 75.2064m
attr unit m
par Aloha.host[306] y 19.6874m
attr unit m
par Aloha.host[306] txrate 1000Bps
attr unit Bps
par Aloha.host[307] typename "\"Host\""
par Aloha.host[307] arrrate 0.6
par Aloha.host[307] packet_size 1B
attr unit B
par Aloha.host[307] x 71.1643m
attr unit m
par Aloha.host[307] y 105.056m
attr unit m
par Aloha.host[307] txrate 1000Bps
attr unit Bps
par Aloha.host[308] typename "\"Host\""
par Aloha.host[308] arrrate 0.6
par Aloha.host[308] packet_size 1B
attr unit B
par Aloha.host[308] x 46.2066m
attr unit m
par Aloha.host[308] y 119.806m
attr unit m
par Aloha.host[308] txrate 1000Bps
attr unit Bps
par Aloha.host[309] typename "\"Host\""
par Aloha.host[309] arrrate 0.6
par Aloha.host[309] packet_size 1B
attr unit B
par Aloha.host[309] x 5.20745m
attr unit m
par Aloha.host[309] y 158.057m
attr unit m
par Aloha.host[309] txrate 1000Bps
attr unit Bps
par Aloha.host[310] typename "\"Host\""
par Aloha.host[310] arrrate 0.6
par Aloha.host[310] packet_size 1B
attr unit B
par Aloha.host[310] x 146.237m
attr unit m
par Aloha.host[310] y 42.4536m
attr unit m
par Aloha.host[310] txrate 1000Bps
attr unit Bps
par Aloha.host[311] typename "\"Host\""
par Aloha.host[311] arrrate 0.6
par Aloha.host[311] packet_size 1B
attr unit B
par Aloha.host[311] x 199.703m
attr unit m
par Aloha.host[311] y 130.839m
attr unit m
par Aloha.host[311] txrate 1000Bps
attr unit Bps
par Aloha.host[312] typename "\"Host\""
par Aloha.host[312] arrrate 0.6
par Aloha.host[312] packet_size 1B
attr unit B
par Aloha.host[312] x 7.66839m
attr unit m
par Aloha.host[312] y 150.643m
attr unit m
par Aloha.host[312] txrate 1000Bps
attr unit Bps
par Aloha.host[313] typename "\"Host\""
par Aloha.host[313] arrrate 0.6
par Aloha.host[313] packet_size 1B
attr unit B
par Aloha.host[313] x 171.82m
attr unit m
par Aloha.host[313] y 161.658m
attr unit m
par Aloha.host[313] txrate 1000Bps
attr unit Bps
par Aloha.host[314] typename "\"Host\""
par Aloha.host[314] arrrate 0.6
par Aloha.host[314] packet_size 1B
attr unit B
par Aloha.host[314] x 108.861m
attr unit m
par Aloha.host[314] y 34.8103m
attr unit m
par Aloha.host[314] txrate 1000Bps
attr unit Bps
par Aloha.host[315] typename "\"Host\""
[...]
par Aloha.host[922] packet_size 1B
attr unit B
par Aloha.host[922] x 35.7188m
attr unit m
par Aloha.host[922] y 14.763m
attr unit m
par Aloha.host[922] txrate 1000Bps
attr unit Bps
par Aloha.host[923] typename "\"Host\""
par Aloha.host[923] arrrate 0.6
par Aloha.host[923] packet_size 1B
attr unit B
par Aloha.host[923] x 23.4969m
attr unit m
par Aloha.host[923] y 179.06m
attr unit m
par Aloha.host[923] txrate 1000Bps
attr unit Bps
par Aloha.host[924] typename "\"Host\""
par Aloha.host[924] arrrate 0.6
par Aloha.host[924] packet_size 1B
attr unit B
par Aloha.host[924] x 103.862m
attr unit m
par Aloha.host[924] y 55.5531m
attr unit m
par Aloha.host[924] txrate 1000Bps
attr unit Bps
par Aloha.host[925] typename "\"Host\""
par Aloha.host[925] arrrate 0.6
par Aloha.host[925] packet_size 1B
attr unit B
par Aloha.host[925] x 14.2336m
attr unit m
par Aloha.host[925] y 107.342m
attr unit m
par Aloha.host[925] txrate 1000Bps
attr unit Bps
par Aloha.host[926] typename "\"Host\""
par Aloha.host[926] arrrate 0.6
par Aloha.host[926] packet_size 1B
attr unit B
par Aloha.host[926] x 84.1173m
attr unit m
par Aloha.host[926] y 12.4991m
attr unit m
par Aloha.host[926] txrate 1000Bps
attr unit Bps
par Aloha.host[927] typename "\"Host\""
par Aloha.host[927] arrrate 0.6
par Aloha.host[927] packet_size 1B
attr unit B
par Aloha.host[927] x 46.1365m
attr unit m
par Aloha.host[927] y 68.2233m
attr unit m
par Aloha.host[927] txrate 1000Bps
attr unit Bps
par Aloha.host[928] typename "\"Host\""
par Aloha.host[928] arrrate 0.6
par Aloha.host[928] packet_size 1B
attr unit B
par Aloha.host[928] x 28.4477m
attr unit m
par Aloha.host[928] y 103.963m
attr unit m
par Aloha.host[928] txrate 1000Bps
attr unit Bps
par Aloha.host[929] typename "\"Host\""
par Aloha.host[929] arrrate 0.6
par Aloha.host[929] packet_size 1B
attr unit B
par Aloha.host[929] x 146.179m
attr unit m
par Aloha.host[929] y 118.077m
attr unit m
par Aloha.host[929] txrate 1000Bps
attr unit Bps
par Aloha.host[930] typename "\"Host\""
par Aloha.host[930] arrrate 0.6
par Aloha.host[930] packet_size 1B
attr unit B
par Aloha.host[930] x 159.706m
attr unit m
par Aloha.host[930] y 68.9785m
attr unit m
par Aloha.host[930] txrate 1000Bps
attr unit Bps
par Aloha.host[931] typename "\"Host\""
par Aloha.host[931] arrrate 0.6
par Aloha.host[931] packet_size 1B
attr unit B
par Aloha.host[931] x 148.202m
attr unit m
par Aloha.host[931] y 141.709m
attr unit m
par Aloha.host[931] txrate 1000Bps
attr unit Bps
par Aloha.host[932] typename "\"Host\""
par Aloha.host[932] arrrate 0.6
par Aloha.host[932] packet_size 1B
attr unit B
par Aloha.host[932] x 78.9355m
attr unit m
par Aloha.host[932] y 134.102m
attr unit m
par Aloha.host[932] txrate 1000Bps
attr unit Bps
par Aloha.host[933] typename "\"Host\""
par Aloha.host[933] arrrate 0.6
par Aloha.host[933] packet_size 1B
attr unit B
par Aloha.host[933] x 94.775m
attr unit m
par Aloha.host[933] y 138.67m
attr unit m
par Aloha.host[933] txrate 1000Bps
attr unit Bps
par Aloha.host[934] typename "\"Host\""
par Aloha.host[934] arrrate 0.6
par Aloha.host[934] packet_size 1B
attr unit B
par Aloha.host[934] x 143.801m
attr unit m
par Aloha.host[934] y 27.7854m
attr unit m
par Aloha.host[934] txrate 1000Bps
attr unit Bps
par Aloha.host[935] typename "\"Host\""
par Aloha.host[935] arrrate 0.6
par Aloha.host[935] packet_size 1B
attr unit B
par Aloha.host[935] x 128.625m
attr unit m
par Aloha.host[935] y 140.137m
attr unit m
par Aloha.host[935] txrate 1000Bps
attr unit Bps
par Aloha.host[936] typename "\"Host\""
par Aloha.host[936] arrrate 0.6
par Aloha.host[936] packet_size 1B
attr unit B
par Aloha.host[936] x 106.873m
attr unit m
par Aloha.host[936] y 88.8248m
attr unit m
par Aloha.host[936] txrate 1000Bps
attr unit Bps
par Aloha.host[937] typename "\"Host\""
par Aloha.host[937] arrrate 0.6
par Aloha.host[937] packet_size 1B
attr unit B
par Aloha.host[937] x 47.9178m
attr unit m
par Aloha.host[937] y 115.475m
attr unit m
par Aloha.host[937] txrate 1000Bps
attr unit Bps
par Aloha.host[938] typename "\"Host\""
par Aloha.host[938] arrrate 0.6
par Aloha.host[938] packet_size 1B
attr unit B
par Aloha.host[938] x 50.277m
attr unit m
par Aloha.host[938] y 70.9858m
attr unit m
par Aloha.host[938] txrate 1000Bps
attr unit Bps
par Aloha.host[939] typename "\"Host\""
par Aloha.host[939] arrrate 0.6
par Aloha.host[939] packet_size 1B
attr unit B
par Aloha.host[939] x 110.051m
attr unit m
par Aloha.host[939] y 117.354m
attr unit m
par Aloha.host[939] txrate 1000Bps
attr unit Bps
par Aloha.host[940] typename "\"Host\""
par Aloha.host[940] arrrate 0.6
par Aloha.host[940] packet_size 1B
attr unit B
par Aloha.host[940] x 157.697m
attr unit m
par Aloha.host[940] y 0.662089m
attr unit m
par Aloha.host[940] txrate 1000Bps
attr unit Bps
par Aloha.host[941] typename "\"Host\""
par Aloha.host[941] arrrate 0.6
par Aloha.host[941] packet_size 1B
attr unit B
par Aloha.host[941] x 75.433m
attr unit m
par Aloha.host[941] y 12.6537m
attr unit m
par Aloha.host[941] txrate 1000Bps
attr unit Bps
par Aloha.host[942] typename "\"Host\""
par Aloha.host[942] arrrate 0.6
par Aloha.host[942] packet_size 1B
attr unit B
par Aloha.host[942] x 112.569m
attr unit m
par Aloha.host[942] y 16.3089m
attr unit m
par Aloha.host[942] txrate 1000Bps
attr unit Bps
par Aloha.host[943] typename "\"Host\""
par Aloha.host[943] arrrate 0.6
par Aloha.host[943] packet_size 1B
attr unit B
par Aloha.host[943] x 197.849m
attr unit m
par Aloha.host[943] y 100.084m
attr unit m
par Aloha.host[943] txrate 1000Bps
attr unit Bps
par Aloha.host[944] typename "\"Host\""
par Aloha.host[944] arrrate 0.6
par Aloha.host[944] packet_size 1B
attr unit B
par Aloha.host[944] x 71.2475m
attr unit m
par Aloha.host[944] y 109.678m
attr unit m
par Aloha.host[944] txrate 1000Bps
attr unit Bps
par Aloha.host[945] typename "\"Host\""
par Aloha.host[945] arrrate 0.6
par Aloha.host[945] packet_size 1B
attr unit B
par Aloha.host[945] x 158.691m
attr unit m
par Aloha.host[945] y 139.756m
attr unit m
par Aloha.host[945] txrate 1000Bps
attr unit Bps
par Aloha.host[946] typename "\"Host\""
par Aloha.host[946] arrrate 0.6
par Aloha.host[946] packet_size 1B
attr unit B
par Aloha.host[946] x 117.179m
attr unit m
par Aloha.host[946] y 91.0009m
attr unit m
par Aloha.host[946] txrate 1000Bps
attr unit Bps
par Aloha.host[947] typename "\"Host\""
par Aloha.host[947] arrrate 0.6
par Aloha.host[947] packet_size 1B
attr unit B
par Aloha.host[947] x 77.6108m
attr unit m
par Aloha.host[947] y 110.516m
attr unit m
par Aloha.host[947] txrate 1000Bps
attr unit Bps
par Aloha.host[948] typename "\"Host\""
par Aloha.host[948] arrrate 0.6
par Aloha.host[948] packet_size 1B
attr unit B
par Aloha.host[948] x 102.017m
attr unit m
par Aloha.host[948] y 56.945m
attr unit m
par Aloha.host[948] txrate 1000Bps
attr unit Bps
par Aloha.host[949] typename "\"Host\""
par Aloha.host[949] arrrate 0.6
par Aloha.host[949] packet_size 1B
attr unit B
par Aloha.host[949] x 13.5353m
attr unit m
par Aloha.host[949] y 189.248m
attr unit m
par Aloha.host[949] txrate 1000Bps
attr unit Bps
par Aloha.host[950] typename "\"Host\""
par Aloha.host[950] arrrate 0.6
par Aloha.host[950] packet_size 1B
attr unit B
par Aloha.host[950] x 117.188m
attr unit m
par Aloha.host[950] y 167.188m
attr unit m
par Aloha.host[950] txrate 1000Bps
attr unit Bps
par Aloha.host[951] typename "\"Host\""
par Aloha.host[951] arrrate 0.6
par Aloha.host[951] packet_size 1B
attr unit B
par Aloha.host[951] x 166.507m
attr unit m
par Aloha.host[951] y 78.5321m
attr unit m
par Aloha.host[951] txrate 1000Bps
attr unit Bps
par Aloha.host[952] typename "\"Host\""
par Aloha.host[952] arrrate 0.6
par Aloha.host[952] packet_size 1B
attr unit B
par Aloha.host[952] x 13.7237m
attr unit m
par Aloha.host[952] y 186.668m
attr unit m
par Aloha.host[952] txrate 1000Bps
attr unit Bps
par Aloha.host[953] typename "\"Host\""
par Aloha.host[953] arrrate 0.6
par Aloha.host[953] packet_size 1B
attr unit B
par Aloha.host[953] x 129.401m
attr unit m
par Aloha.host[953] y 1.0127m
attr unit m
par Aloha.host[953] txrate 1000Bps
attr unit Bps
par Aloha.host[954] typename "\"Host\""
par Aloha.host[954] arrrate 0.6
par Aloha.host[954] packet_size 1B
attr unit B
par Aloha.host[954] x 10.1919m
attr unit m
par Aloha.host[954] y 98.4907m
attr unit m
par Aloha.host[954] txrate 1000Bps
attr unit Bps
par Aloha.host[955] typename "\"Host\""
par Aloha.host[955] arrrate 0.6
par Aloha.host[955] packet_size 1B
attr unit B
par Aloha.host[955] x 22.6144m
attr unit m
par Aloha.host[955] y 75.5993m
attr unit m
par Aloha.host[955] txrate 1000Bps
attr unit Bps
par Aloha.host[956] typename "\"Host\""
par Aloha.host[956] arrrate 0.6
par Aloha.host[956] packet_size 1B
attr unit B
par Aloha.host[956] x 125.268m
attr unit m
par Aloha.host[956] y 160.128m
attr unit m
par Aloha.host[956] txrate 1000Bps
attr unit Bps
par Aloha.host[957] typename "\"Host\""
par Aloha.host[957] arrrate 0.6
par Aloha.host[957] packet_size 1B
attr unit B
par Aloha.host[957] x 106.937m
attr unit m
par Aloha.host[957] y 81.5228m
attr unit m
par Aloha.host[957] txrate 1000Bps
attr unit Bps
par Aloha.host[958] typename "\"Host\""
par Aloha.host[958] arrrate 0.6
par Aloha.host[958] packet_size 1B
attr unit B
par Aloha.host[958] x 37.8834m
attr unit m
par Aloha.host[958] y 57.7943m
attr unit m
par Aloha.host[958] txrate 1000Bps
attr unit Bps
par Aloha.host[959] typename "\"Host\""
par Aloha.host[959] arrrate 0.6
par Aloha.host[959] packet_size 1B
attr unit B
par Aloha.host[959] x 68.8338m
attr unit m
par Aloha.host[959] y 186.566m
attr unit m
par Aloha.host[959] txrate 1000Bps
attr unit Bps
par Aloha.host[960] typename "\"Host\""
par Aloha.host[960] arrrate 0.6
par Aloha.host[960] packet_size 1B
attr unit B
par Aloha.host[960] x 22.7405m
attr unit m
par Aloha.host[960] y 1.59737m
attr unit m
par Aloha.host[960] txrate 1000Bps
attr unit Bps
par Aloha.host[961] typename "\"Host\""
par Aloha.host[961] arrrate 0.6
par Aloha.host[961] packet_size 1B
attr unit B
par Aloha.host[961] x 138.214m
attr unit m
par Aloha.host[961] y 39.9199m
attr unit m
par Aloha.host[961] txrate 1000Bps
attr unit Bps
par Aloha.host[962] typename "\"Host\""
par Aloha.host[962] arrrate 0.6
par Aloha.host[962] packet_size 1B
attr unit B
par Aloha.host[962] x 136.057m
attr unit m
par Aloha.host[962] y 166.831m
attr unit m
par Aloha.host[962] txrate 1000Bps
attr unit Bps
par Aloha.host[963] typename "\"Host\""
par Aloha.host[963] arrrate 0.6
par Aloha.host[963] packet_size 1B
attr unit B
par Aloha.host[963] x 192.422m
attr unit m
par Aloha.host[963] y 194.048m
attr unit m
par Aloha.host[963] txrate 1000Bps
attr unit Bps
par Aloha.host[964] typename "\"Host\""
par Aloha.host[964] arrrate 0.6
par Aloha.host[964] packet_size 1B
attr unit B
par Aloha.host[964] x 137.648m
attr unit m
par Aloha.host[964] y 116.007m
attr unit m
par Aloha.host[964] txrate 1000Bps
attr unit Bps
par Aloha.host[965] typename "\"Host\""
par Aloha.host[965] arrrate 0.6
par Aloha.host[965] packet_size 1B
attr unit B
par Aloha.host[965] x 183.573m
attr unit m
par Aloha.host[965] y 197.875m
attr unit m
par Aloha.host[965] txrate 1000Bps
attr unit Bps
par Aloha.host[966] typename "\"Host\""
par Aloha.host[966] arrrate 0.6
par Aloha.host[966] packet_size 1B
attr unit B
par Aloha.host[966] x 160.549m
attr unit m
par Aloha.host[966] y 164.09m
attr unit m
par Aloha.host[966] txrate 1000Bps
attr unit Bps
par Aloha.host[967] typename "\"Host\""
par Aloha.host[967] arrrate 0.6
par Aloha.host[967] packet_size 1B
attr unit B
par Aloha.host[967] x 116.475m
attr unit m
par Aloha.host[967] y 75.6181m
attr unit m
par Aloha.host[967] txrate 1000Bps
attr unit Bps
par Aloha.host[968] typename "\"Host\""
par Aloha.host[968] arrrate 0.6
par Aloha.host[968] packet_size 1B
attr unit B
par Aloha.host[968] x 108.3m
attr unit m
par Aloha.host[968] y 147.452m
attr unit m
par Aloha.host[968] txrate 1000Bps
attr unit Bps
par Aloha.host[969] typename "\"Host\""
par Aloha.host[969] arrrate 0.6
par Aloha.host[969] packet_size 1B
attr unit B
par Aloha.host[969] x 19.7775m
attr unit m
par Aloha.host[969] y 22.2477m
attr unit m
par Aloha.host[969] txrate 1000Bps
attr unit Bps
par Aloha.host[970] typename "\"Host\""
par Aloha.host[970] arrrate 0.6
par Aloha.host[970] packet_size 1B
attr unit B
par Aloha.host[970] x 34.5121m
attr unit m
par Aloha.host[970] y 88.0793m
attr unit m
par Aloha.host[970] txrate 1000Bps
attr unit Bps
par Aloha.host[971] typename "\"Host\""
par Aloha.host[971] arrrate 0.6
par Aloha.host[971] packet_size 1B
attr unit B
par Aloha.host[971] x 120.719m
attr unit m
par Aloha.host[971] y 1.36988m
attr unit m
par Aloha.host[971] txrate 1000Bps
attr unit Bps
par Aloha.host[972] typename "\"Host\""
par Aloha.host[972] arrrate 0.6
par Aloha.host[972] packet_size 1B
attr unit B
par Aloha.host[972] x 75.8295m
attr unit m
par Aloha.host[972] y 169.455m
attr unit m
par Aloha.host[972] txrate 1000Bps
attr unit Bps
par Aloha.host[973] typename "\"Host\""
par Aloha.host[973] arrrate 0.6
par Aloha.host[973] packet_size 1B
attr unit B
par Aloha.host[973] x 23.591m
attr unit m
par Aloha.host[973] y 133.683m
attr unit m
par Aloha.host[973] txrate 1000Bps
attr unit Bps
par Aloha.host[974] typename "\"Host\""
par Aloha.host[974] arrrate 0.6
par Aloha.host[974] packet_size 1B
attr unit B
par Aloha.host[974] x 161.856m
attr unit m
par Aloha.host[974] y 11.682m
attr unit m
par Aloha.host[974] txrate 1000Bps
attr unit Bps
par Aloha.host[975] typename "\"Host\""
par Aloha.host[975] arrrate 0.6
par Aloha.host[975] packet_size 1B
attr unit B
par Aloha.host[975] x 74.2389m
attr unit m
par Aloha.host[975] y 131.446m
attr unit m
par Aloha.host[975] txrate 1000Bps
attr unit Bps
par Aloha.host[976] typename "\"Host\""
par Aloha.host[976] arrrate 0.6
par Aloha.host[976] packet_size 1B
attr unit B
par Aloha.host[976] x 14.2314m
attr unit m
par Aloha.host[976] y 32.2382m
attr unit m
par Aloha.host[976] txrate 1000Bps
attr unit Bps
par Aloha.host[977] typename "\"Host\""
par Aloha.host[977] arrrate 0.6
par Aloha.host[977] packet_size 1B
attr unit B
par Aloha.host[977] x 21.0716m
attr unit m
par Aloha.host[977] y 56.7391m
attr unit m
par Aloha.host[977] txrate 1000Bps
attr unit Bps
par Aloha.host[978] typename "\"Host\""
par Aloha.host[978] arrrate 0.6
par Aloha.host[978] packet_size 1B
attr unit B
par Aloha.host[978] x 11.8054m
attr unit m
par Aloha.host[978] y 49.8927m
attr unit m
par Aloha.host[978] txrate 1000Bps
attr unit Bps
par Aloha.host[979] typename "\"Host\""
par Aloha.host[979] arrrate 0.6
par Aloha.host[979] packet_size 1B
attr unit B
par Aloha.host[979] x 43.4419m
attr unit m
par Aloha.host[979] y 149.635m
attr unit m
par Aloha.host[979] txrate 1000Bps
attr unit Bps
par Aloha.host[980] typename "\"Host\""
par Aloha.host[980] arrrate 0.6
par Aloha.host[980] packet_size 1B
attr unit B
par Aloha.host[980] x 110.728m
attr unit m
par Aloha.host[980] y 155.989m
attr unit m
par Aloha.host[980] txrate 1000Bps
attr unit Bps
par Aloha.host[981] typename "\"Host\""
par Aloha.host[981] arrrate 0.6
par Aloha.host[981] packet_size 1B
attr unit B
par Aloha.host[981] x 100.654m
attr unit m
par Aloha.host[981] y 11.2069m
attr unit m
par Aloha.host[981] txrate 1000Bps
attr unit Bps
par Aloha.host[982] typename "\"Host\""
par Aloha.host[982] arrrate 0.6
par Aloha.host[982] packet_size 1B
attr unit B
par Aloha.host[982] x 40.0349m
attr unit m
par Aloha.host[982] y 198.624m
attr unit m
par Aloha.host[982] txrate 1000Bps
attr unit Bps
par Aloha.host[983] typename "\"Host\""
par Aloha.host[983] arrrate 0.6
par Aloha.host[983] packet_size 1B
attr unit B
par Aloha.host[983] x 25.3474m
attr unit m
par Aloha.host[983] y 128.312m
attr unit m
par Aloha.host[983] txrate 1000Bps
attr unit Bps
par Aloha.host[984] typename "\"Host\""
par Aloha.host[984] arrrate 0.6
par Aloha.host[984] packet_size 1B
attr unit B
par Aloha.host[984] x 94.6675m
attr unit m
par Aloha.host[984] y 32.5595m
attr unit m
par Aloha.host[984] txrate 1000Bps
attr unit Bps
par Aloha.host[985] typename "\"Host\""
par Aloha.host[985] arrrate 0.6
par Aloha.host[985] packet_size 1B
attr unit B
par Aloha.host[985] x 124.204m
attr unit m
par Aloha.host[985] y 156.688m
attr unit m
par Aloha.host[985] txrate 1000Bps
attr unit Bps
par Aloha.host[986] typename "\"Host\""
par Aloha.host[986] arrrate 0.6
par Aloha.host[986] packet_size 1B
attr unit B
par Aloha.host[986] x 97.8124m
attr unit m
par Aloha.host[986] y 168.841m
attr unit m
par Aloha.host[986] txrate 1000Bps
attr unit Bps
par Aloha.host[987] typename "\"Host\""
par Aloha.host[987] arrrate 0.6
par Aloha.host[987] packet_size 1B
attr unit B
par Aloha.host[987] x 101.606m
attr unit m
par Aloha.host[987] y 162.08m
attr unit m
par Aloha.host[987] txrate 1000Bps
attr unit Bps
par Aloha.host[988] typename "\"Host\""
par Aloha.host[988] arrrate 0.6
par Aloha.host[988] packet_size 1B
attr unit B
par Aloha.host[988] x 183.989m
attr unit m
par Aloha.host[988] y 117.52m
attr unit m
par Aloha.host[988] txrate 1000Bps
attr unit Bps
par Aloha.host[989] typename "\"Host\""
par Aloha.host[989] arrrate 0.6
par Aloha.host[989] packet_size 1B
attr unit B
par Aloha.host[989] x 167.679m
attr unit m
par Aloha.host[989] y 120.362m
attr unit m
par Aloha.host[989] txrate 1000Bps
attr unit Bps
par Aloha.host[990] typename "\"Host\""
par Aloha.host[990] arrrate 0.6
par Aloha.host[990] packet_size 1B
attr unit B
par Aloha.host[990] x 149.512m
attr unit m
par Aloha.host[990] y 88.5994m
attr unit m
par Aloha.host[990] txrate 1000Bps
attr unit Bps
par Aloha.host[991] typename "\"Host\""
par Aloha.host[991] arrrate 0.6
par Aloha.host[991] packet_size 1B
attr unit B
par Aloha.host[991] x 79.259m
attr unit m
par Aloha.host[991] y 98.2449m
attr unit m
par Aloha.host[991] txrate 1000Bps
attr unit Bps
par Aloha.host[992] typename "\"Host\""
par Aloha.host[992] arrrate 0.6
par Aloha.host[992] packet_size 1B
attr unit B
par Aloha.host[992] x 114.117m
attr unit m
par Aloha.host[992] y 43.9092m
attr unit m
par Aloha.host[992] txrate 1000Bps
attr unit Bps
par Aloha.host[993] typename "\"Host\""
par Aloha.host[993] arrrate 0.6
par Aloha.host[993] packet_size 1B
attr unit B
par Aloha.host[993] x 145.322m
attr unit m
par Aloha.host[993] y 107.912m
attr unit m
par Aloha.host[993] txrate 1000Bps
attr unit Bps
par Aloha.host[994] typename "\"Host\""
par Aloha.host[994] arrrate 0.6
par Aloha.host[994] packet_size 1B
attr unit B
par Aloha.host[994] x 87.4586m
attr unit m
par Aloha.host[994] y 37.2946m
attr unit m
par Aloha.host[994] txrate 1000Bps
attr unit Bps
par Aloha.host[995] typename "\"Host\""
par Aloha.host[995] arrrate 0.6
par Aloha.host[995] packet_size 1B
attr unit B
par Aloha.host[995] x 9.43396m
attr unit m
par Aloha.host[995] y 156.556m
attr unit m
par Aloha.host[995] txrate 1000Bps
attr unit Bps
par Aloha.host[996] typename "\"Host\""
par Aloha.host[996] arrrate 0.6
par Aloha.host[996] packet_size 1B
attr unit B
par Aloha.host[996] x 133.145m
attr unit m
par Aloha.host[996] y 59.7439m
attr unit m
par Aloha.host[996] txrate 1000Bps
attr unit Bps
par Aloha.host[997] typename "\"Host\""
par Aloha.host[997] arrrate 0.6
par Aloha.host[997] packet_size 1B
attr unit B
par Aloha.host[997] x 173.92m
attr unit m
par Aloha.host[997] y 19.1257m
attr unit m
par Aloha.host[997] txrate 1000Bps
attr unit Bps
par Aloha.host[998] typename "\"Host\""
par Aloha.host[998] arrrate 0.6
par Aloha.host[998] packet_size 1B
attr unit B
par Aloha.host[998] x 62.0787m
attr unit m
par Aloha.host[998] y 28.4234m
attr unit m
par Aloha.host[998] txrate 1000Bps
attr unit Bps
par Aloha.host[999] typename "\"Host\""
par Aloha.host[999] arrrate 0.6
par Aloha.host[999] packet_size 1B
attr unit B
par Aloha.host[999] x 158.119m
attr unit m
par Aloha.host[999] y 187.111m
attr unit m
par Aloha.host[999] txrate 1000Bps
attr unit Bps
par Aloha.server typename "\"Server\""
par Aloha.server x 143.249m
attr unit m
par Aloha.server y 161.138m
attr unit m
scalar Aloha.server prob_succ 0.30134530034524
scalar Aloha.server uti 18.077779
par Aloha typename "\"Aloha\""
par Aloha numHosts 1000

