version 3
run General-6-20220605-16:53:24-732257
attr configname General
attr datetime 20220605-16:53:24
attr datetimef 20220605-165324
attr experiment General
attr inifile aloha.ini
attr iterationvars $0=0.7
attr iterationvarsd 0.7
attr iterationvarsf 0.7-
attr measurement $0=0.7
attr network Aloha
attr processid 732257
attr repetition 0
attr replication #0
attr resultdir results
attr runnumber 6
attr seedset 6
config network Aloha
config cmdenv-performance-display false
config sim-time-limit 100000s
config **.x "uniform(0m, 200m)"
config **.y "uniform(0m, 200m)"
config *.numHosts 1000
config **.packet_size 1B
config **.txrate 1000Bps
config **.arrrate 0.7

par Aloha.host[0] typename "\"Host\""
par Aloha.host[0] arrrate 0.7
par Aloha.host[0] packet_size 1B
attr unit B
par Aloha.host[0] x 178.572m
attr unit m
par Aloha.host[0] y 189.495m
attr unit m
par Aloha.host[0] txrate 1000Bps
attr unit Bps
par Aloha.host[1] typename "\"Host\""
par Aloha.host[1] arrrate 0.7
par Aloha.host[1] packet_size 1B
attr unit B
par Aloha.host[1] x 66.396m
attr unit m
par Aloha.host[1] y 41.8813m
attr unit m
par Aloha.host[1] txrate 1000Bps
attr unit Bps
par Aloha.host[2] typename "\"Host\""
par Aloha.host[2] arrrate 0.7
par Aloha.host[2] packet_size 1B
attr unit B
par Aloha.host[2] x 164.246m
attr unit m
par Aloha.host[2] y 12.8509m
attr unit m
par Aloha.host[2] txrate 1000Bps
attr unit Bps
par Aloha.host[3] typename "\"Host\""
par Aloha.host[3] arrrate 0.7
par Aloha.host[3] packet_size 1B
attr unit B
par Aloha.host[3] x 8.33933m
attr unit m
par Aloha.host[3] y 74.0219m
attr unit m
par Aloha.host[3] txrate 1000Bps
attr unit Bps
par Aloha.host[4] typename "\"Host\""
par Aloha.host[4] arrrate 0.7
par Aloha.host[4] packet_size 1B
attr unit B
par Aloha.host[4] x 21.5313m
attr unit m
par Aloha.host[4] y 197.006m
attr unit m
par Aloha.host[4] txrate 1000Bps
attr unit Bps
par Aloha.host[5] typename "\"Host\""
par Aloha.host[5] arrrate 0.7
par Aloha.host[5] packet_size 1B
attr unit B
par Aloha.host[5] x 119.01m
attr unit m
par Aloha.host[5] y 19.8943m
attr unit m
par Aloha.host[5] txrate 1000Bps
attr unit Bps
par Aloha.host[6] typename "\"Host\""
par Aloha.host[6] arrrate 0.7
par Aloha.host[6] packet_size 1B
attr unit B
par Aloha.host[6] x 105.963m
attr unit m
par Aloha.host[6] y 121.695m
attr unit m
par Aloha.host[6] txrate 1000Bps
attr unit Bps
par Aloha.host[7] typename "\"Host\""
par Aloha.host[7] arrrate 0.7
par Aloha.host[7] packet_size 1B
attr unit B
par Aloha.host[7] x 83.7615m
attr unit m
par Aloha.host[7] y 106.079m
attr unit m
par Aloha.host[7] txrate 1000Bps
attr unit Bps
par Aloha.host[8] typename "\"Host\""
par Aloha.host[8] arrrate 0.7
par Aloha.host[8] packet_size 1B
attr unit B
par Aloha.host[8] x 67.0816m
attr unit m
par Aloha.host[8] y 96.5665m
attr unit m
par Aloha.host[8] txrate 1000Bps
attr unit Bps
par Aloha.host[9] typename "\"Host\""
par Aloha.host[9] arrrate 0.7
par Aloha.host[9] packet_size 1B
attr unit B
par Aloha.host[9] x 124.504m
attr unit m
par Aloha.host[9] y 165.042m
attr unit m
par Aloha.host[9] txrate 1000Bps
attr unit Bps
par Aloha.host[10] typename "\"Host\""
par Aloha.host[10] arrrate 0.7
par Aloha.host[10] packet_size 1B
attr unit B
par Aloha.host[10] x 87.6283m
attr unit m
par Aloha.host[10] y 151.003m
attr unit m
par Aloha.host[10] txrate 1000Bps
attr unit Bps
par Aloha.host[11] typename "\"Host\""
par Aloha.host[11] arrrate 0.7
par Aloha.host[11] packet_size 1B
attr unit B
par Aloha.host[11] x 147.176m
attr unit m
par Aloha.host[11] y 77.9951m
attr unit m
par Aloha.host[11] txrate 1000Bps
attr unit Bps
par Aloha.host[12] typename "\"Host\""
par Aloha.host[12] arrrate 0.7
par Aloha.host[12] packet_size 1B
attr unit B
par Aloha.host[12] x 103.607m
attr unit m
par Aloha.host[12] y 47.9628m
attr unit m
par Aloha.host[12] txrate 1000Bps
attr unit Bps
par Aloha.host[13] typename "\"Host\""
par Aloha.host[13] arrrate 0.7
par Aloha.host[13] packet_size 1B
attr unit B
par Aloha.host[13] x 115.772m
attr unit m
par Aloha.host[13] y 31.123m
attr unit m
par Aloha.host[13] txrate 1000Bps
attr unit Bps
par Aloha.host[14] typename "\"Host\""
par Aloha.host[14] arrrate 0.7
par Aloha.host[14] packet_size 1B
attr unit B
par Aloha.host[14] x 129.071m
attr unit m
par Aloha.host[14] y 144.866m
attr unit m
par Aloha.host[14] txrate 1000Bps
attr unit Bps
par Aloha.host[15] typename "\"Host\""
par Aloha.host[15] arrrate 0.7
par Aloha.host[15] packet_size 1B
attr unit B
par Aloha.host[15] x 198.045m
attr unit m
par Aloha.host[15] y 182.839m
attr unit m
par Aloha.host[15] txrate 1000Bps
attr unit Bps
par Aloha.host[16] typename "\"Host\""
par Aloha.host[16] arrrate 0.7
par Aloha.host[16] packet_size 1B
attr unit B
par Aloha.host[16] x 163.972m
attr unit m
par Aloha.host[16] y 94.6052m
attr unit m
par Aloha.host[16] txrate 1000Bps
attr unit Bps
par Aloha.host[17] typename "\"Host\""
par Aloha.host[17] arrrate 0.7
par Aloha.host[17] packet_size 1B
attr unit B
par Aloha.host[17] x 82.6402m
attr unit m
par Aloha.host[17] y 135.701m
attr unit m
par Aloha.host[17] txrate 1000Bps
attr unit Bps
par Aloha.host[18] typename "\"Host\""
par Aloha.host[18] arrrate 0.7
par Aloha.host[18] packet_size 1B
attr unit B
par Aloha.host[18] x 175.254m
attr unit m
par Aloha.host[18] y 160.344m
attr unit m
par Aloha.host[18] txrate 1000Bps
attr unit Bps
par Aloha.host[19] typename "\"Host\""
par Aloha.host[19] arrrate 0.7
par Aloha.host[19] packet_size 1B
attr unit B
par Aloha.host[19] x 164.752m
attr unit m
par Aloha.host[19] y 91.6369m
attr unit m
par Aloha.host[19] txrate 1000Bps
attr unit Bps
par Aloha.host[20] typename "\"Host\""
par Aloha.host[20] arrrate 0.7
par Aloha.host[20] packet_size 1B
attr unit B
par Aloha.host[20] x 10.8949m
attr unit m
par Aloha.host[20] y 134.767m
attr unit m
par Aloha.host[20] txrate 1000Bps
attr unit Bps
par Aloha.host[21] typename "\"Host\""
par Aloha.host[21] arrrate 0.7
par Aloha.host[21] packet_size 1B
attr unit B
par Aloha.host[21] x 143.727m
attr unit m
par Aloha.host[21] y 29.5689m
attr unit m
par Aloha.host[21] txrate 1000Bps
attr unit Bps
par Aloha.host[22] typename "\"Host\""
par Aloha.host[22] arrrate 0.7
par Aloha.host[22] packet_size 1B
attr unit B
par Aloha.host[22] x 160.434m
attr unit m
par Aloha.host[22] y 71.4191m
attr unit m
par Aloha.host[22] txrate 1000Bps
attr unit Bps
par Aloha.host[23] typename "\"Host\""
par Aloha.host[23] arrrate 0.7
par Aloha.host[23] packet_size 1B
attr unit B
par Aloha.host[23] x 147.281m
attr unit m
par Aloha.host[23] y 123.295m
attr unit m
par Aloha.host[23] txrate 1000Bps
attr unit Bps
par Aloha.host[24] typename "\"Host\""
par Aloha.host[24] arrrate 0.7
par Aloha.host[24] packet_size 1B
attr unit B
par Aloha.host[24] x 141.826m
attr unit m
par Aloha.host[24] y 88.5021m
attr unit m
par Aloha.host[24] txrate 1000Bps
attr unit Bps
par Aloha.host[25] typename "\"Host\""
par Aloha.host[25] arrrate 0.7
par Aloha.host[25] packet_size 1B
attr unit B
par Aloha.host[25] x 108.187m
attr unit m
par Aloha.host[25] y 115.19m
attr unit m
par Aloha.host[25] txrate 1000Bps
attr unit Bps
par Aloha.host[26] typename "\"Host\""
par Aloha.host[26] arrrate 0.7
par Aloha.host[26] packet_size 1B
attr unit B
par Aloha.host[26] x 24.9648m
attr unit m
par Aloha.host[26] y 16.9683m
attr unit m
par Aloha.host[26] txrate 1000Bps
attr unit Bps
par Aloha.host[27] typename "\"Host\""
par Aloha.host[27] arrrate 0.7
par Aloha.host[27] packet_size 1B
attr unit B
par Aloha.host[27] x 191.529m
attr unit m
par Aloha.host[27] y 44.6567m
attr unit m
par Aloha.host[27] txrate 1000Bps
attr unit Bps
par Aloha.host[28] typename "\"Host\""
par Aloha.host[28] arrrate 0.7
par Aloha.host[28] packet_size 1B
attr unit B
par Aloha.host[28] x 80.6513m
attr unit m
par Aloha.host[28] y 43.578m
attr unit m
par Aloha.host[28] txrate 1000Bps
attr unit Bps
par Aloha.host[29] typename "\"Host\""
par Aloha.host[29] arrrate 0.7
par Aloha.host[29] packet_size 1B
attr unit B
par Aloha.host[29] x 43.3902m
attr unit m
par Aloha.host[29] y 165.118m
attr unit m
par Aloha.host[29] txrate 1000Bps
attr unit Bps
par Aloha.host[30] typename "\"Host\""
par Aloha.host[30] arrrate 0.7
par Aloha.host[30] packet_size 1B
attr unit B
par Aloha.host[30] x 143.455m
attr unit m
par Aloha.host[30] y 92.0483m
attr unit m
par Aloha.host[30] txrate 1000Bps
attr unit Bps
par Aloha.host[31] typename "\"Host\""
par Aloha.host[31] arrrate 0.7
par Aloha.host[31] packet_size 1B
attr unit B
par Aloha.host[31] x 198.841m
attr unit m
par Aloha.host[31] y 109.138m
attr unit m
par Aloha.host[31] txrate 1000Bps
attr unit Bps
par Aloha.host[32] typename "\"Host\""
par Aloha.host[32] arrrate 0.7
par Aloha.host[32] packet_size 1B
attr unit B
par Aloha.host[32] x 51.1228m
attr unit m
par Aloha.host[32] y 157.522m
attr unit m
par Aloha.host[32] txrate 1000Bps
attr unit Bps
par Aloha.host[33] typename "\"Host\""
par Aloha.host[33] arrrate 0.7
par Aloha.host[33] packet_size 1B
attr unit B
par Aloha.host[33] x 134.262m
attr unit m
par Aloha.host[33] y 147.972m
attr unit m
par Aloha.host[33] txrate 1000Bps
attr unit Bps
par Aloha.host[34] typename "\"Host\""
par Aloha.host[34] arrrate 0.7
par Aloha.host[34] packet_size 1B
attr unit B
par Aloha.host[34] x 119.801m
attr unit m
par Aloha.host[34] y 144.02m
attr unit m
par Aloha.host[34] txrate 1000Bps
attr unit Bps
par Aloha.host[35] typename "\"Host\""
par Aloha.host[35] arrrate 0.7
par Aloha.host[35] packet_size 1B
attr unit B
par Aloha.host[35] x 143.466m
attr unit m
par Aloha.host[35] y 159.565m
attr unit m
par Aloha.host[35] txrate 1000Bps
attr unit Bps
par Aloha.host[36] typename "\"Host\""
par Aloha.host[36] arrrate 0.7
par Aloha.host[36] packet_size 1B
attr unit B
par Aloha.host[36] x 187.47m
attr unit m
par Aloha.host[36] y 176.379m
attr unit m
par Aloha.host[36] txrate 1000Bps
attr unit Bps
par Aloha.host[37] typename "\"Host\""
par Aloha.host[37] arrrate 0.7
par Aloha.host[37] packet_size 1B
attr unit B
par Aloha.host[37] x 70.362m
attr unit m
par Aloha.host[37] y 164.321m
attr unit m
par Aloha.host[37] txrate 1000Bps
attr unit Bps
par Aloha.host[38] typename "\"Host\""
par Aloha.host[38] arrrate 0.7
par Aloha.host[38] packet_size 1B
attr unit B
par Aloha.host[38] x 50.7268m
attr unit m
par Aloha.host[38] y 61.1883m
attr unit m
par Aloha.host[38] txrate 1000Bps
attr unit Bps
par Aloha.host[39] typename "\"Host\""
par Aloha.host[39] arrrate 0.7
par Aloha.host[39] packet_size 1B
attr unit B
par Aloha.host[39] x 80.4945m
attr unit m
par Aloha.host[39] y 149.075m
attr unit m
par Aloha.host[39] txrate 1000Bps
attr unit Bps
par Aloha.host[40] typename "\"Host\""
par Aloha.host[40] arrrate 0.7
par Aloha.host[40] packet_size 1B
attr unit B
par Aloha.host[40] x 149.302m
attr unit m
par Aloha.host[40] y 77.6438m
attr unit m
par Aloha.host[40] txrate 1000Bps
attr unit Bps
par Aloha.host[41] typename "\"Host\""
par Aloha.host[41] arrrate 0.7
par Aloha.host[41] packet_size 1B
attr unit B
par Aloha.host[41] x 144.814m
attr unit m
par Aloha.host[41] y 93.9335m
attr unit m
par Aloha.host[41] txrate 1000Bps
attr unit Bps
par Aloha.host[42] typename "\"Host\""
par Aloha.host[42] arrrate 0.7
par Aloha.host[42] packet_size 1B
attr unit B
par Aloha.host[42] x 81.2216m
attr unit m
par Aloha.host[42] y 142.009m
attr unit m
par Aloha.host[42] txrate 1000Bps
attr unit Bps
par Aloha.host[43] typename "\"Host\""
par Aloha.host[43] arrrate 0.7
par Aloha.host[43] packet_size 1B
attr unit B
par Aloha.host[43] x 197.876m
attr unit m
par Aloha.host[43] y 73.0253m
attr unit m
par Aloha.host[43] txrate 1000Bps
attr unit Bps
par Aloha.host[44] typename "\"Host\""
par Aloha.host[44] arrrate 0.7
par Aloha.host[44] packet_size 1B
attr unit B
par Aloha.host[44] x 90.0999m
attr unit m
par Aloha.host[44] y 185.45m
attr unit m
par Aloha.host[44] txrate 1000Bps
attr unit Bps
par Aloha.host[45] typename "\"Host\""
par Aloha.host[45] arrrate 0.7
par Aloha.host[45] packet_size 1B
attr unit B
par Aloha.host[45] x 74.7617m
attr unit m
par Aloha.host[45] y 146.437m
attr unit m
par Aloha.host[45] txrate 1000Bps
attr unit Bps
par Aloha.host[46] typename "\"Host\""
par Aloha.host[46] arrrate 0.7
par Aloha.host[46] packet_size 1B
attr unit B
par Aloha.host[46] x 141.926m
attr unit m
par Aloha.host[46] y 48.7674m
attr unit m
par Aloha.host[46] txrate 1000Bps
attr unit Bps
par Aloha.host[47] typename "\"Host\""
par Aloha.host[47] arrrate 0.7
par Aloha.host[47] packet_size 1B
attr unit B
par Aloha.host[47] x 16.4917m
attr unit m
par Aloha.host[47] y 135.933m
attr unit m
par Aloha.host[47] txrate 1000Bps
attr unit Bps
par Aloha.host[48] typename "\"Host\""
par Aloha.host[48] arrrate 0.7
par Aloha.host[48] packet_size 1B
attr unit B
par Aloha.host[48] x 79.6746m
attr unit m
par Aloha.host[48] y 11.9158m
attr unit m
par Aloha.host[48] txrate 1000Bps
attr unit Bps
par Aloha.host[49] typename "\"Host\""
par Aloha.host[49] arrrate 0.7
par Aloha.host[49] packet_size 1B
attr unit B
par Aloha.host[49] x 154.176m
attr unit m
par Aloha.host[49] y 171.258m
attr unit m
par Aloha.host[49] txrate 1000Bps
attr unit Bps
par Aloha.host[50] typename "\"Host\""
par Aloha.host[50] arrrate 0.7
par Aloha.host[50] packet_size 1B
attr unit B
par Aloha.host[50] x 152.95m
attr unit m
par Aloha.host[50] y 98.2396m
attr unit m
par Aloha.host[50] txrate 1000Bps
attr unit Bps
par Aloha.host[51] typename "\"Host\""
par Aloha.host[51] arrrate 0.7
par Aloha.host[51] packet_size 1B
attr unit B
par Aloha.host[51] x 56.7719m
attr unit m
par Aloha.host[51] y 106.519m
attr unit m
par Aloha.host[51] txrate 1000Bps
attr unit Bps
par Aloha.host[52] typename "\"Host\""
par Aloha.host[52] arrrate 0.7
par Aloha.host[52] packet_size 1B
attr unit B
par Aloha.host[52] x 37.9084m
attr unit m
par Aloha.host[52] y 30.3312m
attr unit m
par Aloha.host[52] txrate 1000Bps
attr unit Bps
par Aloha.host[53] typename "\"Host\""
par Aloha.host[53] arrrate 0.7
par Aloha.host[53] packet_size 1B
attr unit B
par Aloha.host[53] x 94.2502m
attr unit m
par Aloha.host[53] y 160.916m
attr unit m
par Aloha.host[53] txrate 1000Bps
attr unit Bps
par Aloha.host[54] typename "\"Host\""
par Aloha.host[54] arrrate 0.7
par Aloha.host[54] packet_size 1B
attr unit B
par Aloha.host[54] x 66.9612m
attr unit m
par Aloha.host[54] y 122.762m
attr unit m
par Aloha.host[54] txrate 1000Bps
attr unit Bps
par Aloha.host[55] typename "\"Host\""
par Aloha.host[55] arrrate 0.7
par Aloha.host[55] packet_size 1B
attr unit B
par Aloha.host[55] x 146.947m
attr unit m
par Aloha.host[55] y 49.8454m
attr unit m
par Aloha.host[55] txrate 1000Bps
attr unit Bps
par Aloha.host[56] typename "\"Host\""
par Aloha.host[56] arrrate 0.7
par Aloha.host[56] packet_size 1B
attr unit B
par Aloha.host[56] x 37.8214m
attr unit m
par Aloha.host[56] y 79.1446m
attr unit m
par Aloha.host[56] txrate 1000Bps
attr unit Bps
par Aloha.host[57] typename "\"Host\""
par Aloha.host[57] arrrate 0.7
par Aloha.host[57] packet_size 1B
attr unit B
par Aloha.host[57] x 66.2208m
attr unit m
par Aloha.host[57] y 112.015m
attr unit m
par Aloha.host[57] txrate 1000Bps
attr unit Bps
par Aloha.host[58] typename "\"Host\""
par Aloha.host[58] arrrate 0.7
par Aloha.host[58] packet_size 1B
attr unit B
par Aloha.host[58] x 168.846m
attr unit m
par Aloha.host[58] y 111.167m
attr unit m
par Aloha.host[58] txrate 1000Bps
attr unit Bps
par Aloha.host[59] typename "\"Host\""
par Aloha.host[59] arrrate 0.7
par Aloha.host[59] packet_size 1B
attr unit B
par Aloha.host[59] x 123.005m
attr unit m
par Aloha.host[59] y 110.429m
attr unit m
par Aloha.host[59] txrate 1000Bps
attr unit Bps
par Aloha.host[60] typename "\"Host\""
par Aloha.host[60] arrrate 0.7
par Aloha.host[60] packet_size 1B
attr unit B
par Aloha.host[60] x 177.053m
attr unit m
par Aloha.host[60] y 92.4722m
attr unit m
par Aloha.host[60] txrate 1000Bps
attr unit Bps
par Aloha.host[61] typename "\"Host\""
par Aloha.host[61] arrrate 0.7
par Aloha.host[61] packet_size 1B
attr unit B
par Aloha.host[61] x 195.311m
attr unit m
par Aloha.host[61] y 134.131m
attr unit m
par Aloha.host[61] txrate 1000Bps
attr unit Bps
par Aloha.host[62] typename "\"Host\""
par Aloha.host[62] arrrate 0.7
par Aloha.host[62] packet_size 1B
attr unit B
par Aloha.host[62] x 167.382m
attr unit m
par Aloha.host[62] y 176.736m
attr unit m
par Aloha.host[62] txrate 1000Bps
attr unit Bps
par Aloha.host[63] typename "\"Host\""
par Aloha.host[63] arrrate 0.7
par Aloha.host[63] packet_size 1B
attr unit B
par Aloha.host[63] x 36.1649m
attr unit m
par Aloha.host[63] y 95.9409m
attr unit m
par Aloha.host[63] txrate 1000Bps
attr unit Bps
par Aloha.host[64] typename "\"Host\""
par Aloha.host[64] arrrate 0.7
par Aloha.host[64] packet_size 1B
attr unit B
par Aloha.host[64] x 123.682m
attr unit m
par Aloha.host[64] y 83.2199m
attr unit m
par Aloha.host[64] txrate 1000Bps
attr unit Bps
par Aloha.host[65] typename "\"Host\""
par Aloha.host[65] arrrate 0.7
par Aloha.host[65] packet_size 1B
attr unit B
par Aloha.host[65] x 95.2218m
attr unit m
par Aloha.host[65] y 50.2776m
attr unit m
par Aloha.host[65] txrate 1000Bps
attr unit Bps
par Aloha.host[66] typename "\"Host\""
par Aloha.host[66] arrrate 0.7
par Aloha.host[66] packet_size 1B
attr unit B
par Aloha.host[66] x 80.8313m
attr unit m
par Aloha.host[66] y 189.251m
attr unit m
par Aloha.host[66] txrate 1000Bps
attr unit Bps
par Aloha.host[67] typename "\"Host\""
par Aloha.host[67] arrrate 0.7
par Aloha.host[67] packet_size 1B
attr unit B
par Aloha.host[67] x 148.377m
attr unit m
par Aloha.host[67] y 196.618m
attr unit m
par Aloha.host[67] txrate 1000Bps
attr unit Bps
par Aloha.host[68] typename "\"Host\""
par Aloha.host[68] arrrate 0.7
par Aloha.host[68] packet_size 1B
attr unit B
par Aloha.host[68] x 165.187m
attr unit m
par Aloha.host[68] y 110.371m
attr unit m
par Aloha.host[68] txrate 1000Bps
attr unit Bps
par Aloha.host[69] typename "\"Host\""
par Aloha.host[69] arrrate 0.7
par Aloha.host[69] packet_size 1B
attr unit B
par Aloha.host[69] x 136.646m
attr unit m
par Aloha.host[69] y 109.975m
attr unit m
par Aloha.host[69] txrate 1000Bps
attr unit Bps
par Aloha.host[70] typename "\"Host\""
par Aloha.host[70] arrrate 0.7
par Aloha.host[70] packet_size 1B
attr unit B
par Aloha.host[70] x 27.8543m
attr unit m
par Aloha.host[70] y 92.7821m
attr unit m
par Aloha.host[70] txrate 1000Bps
attr unit Bps
par Aloha.host[71] typename "\"Host\""
par Aloha.host[71] arrrate 0.7
par Aloha.host[71] packet_size 1B
attr unit B
par Aloha.host[71] x 140.565m
attr unit m
par Aloha.host[71] y 77.0969m
attr unit m
par Aloha.host[71] txrate 1000Bps
attr unit Bps
par Aloha.host[72] typename "\"Host\""
par Aloha.host[72] arrrate 0.7
par Aloha.host[72] packet_size 1B
attr unit B
par Aloha.host[72] x 11.7675m
attr unit m
par Aloha.host[72] y 81.5015m
attr unit m
par Aloha.host[72] txrate 1000Bps
attr unit Bps
par Aloha.host[73] typename "\"Host\""
par Aloha.host[73] arrrate 0.7
par Aloha.host[73] packet_size 1B
attr unit B
par Aloha.host[73] x 38.5331m
attr unit m
par Aloha.host[73] y 57.0299m
attr unit m
par Aloha.host[73] txrate 1000Bps
attr unit Bps
par Aloha.host[74] typename "\"Host\""
par Aloha.host[74] arrrate 0.7
par Aloha.host[74] packet_size 1B
attr unit B
par Aloha.host[74] x 184.959m
attr unit m
par Aloha.host[74] y 0.170496m
attr unit m
par Aloha.host[74] txrate 1000Bps
attr unit Bps
par Aloha.host[75] typename "\"Host\""
par Aloha.host[75] arrrate 0.7
par Aloha.host[75] packet_size 1B
attr unit B
par Aloha.host[75] x 81.0205m
attr unit m
par Aloha.host[75] y 86.9224m
attr unit m
par Aloha.host[75] txrate 1000Bps
attr unit Bps
par Aloha.host[76] typename "\"Host\""
par Aloha.host[76] arrrate 0.7
par Aloha.host[76] packet_size 1B
attr unit B
par Aloha.host[76] x 29.6583m
attr unit m
par Aloha.host[76] y 117.467m
attr unit m
par Aloha.host[76] txrate 1000Bps
attr unit Bps
par Aloha.host[77] typename "\"Host\""
par Aloha.host[77] arrrate 0.7
par Aloha.host[77] packet_size 1B
attr unit B
par Aloha.host[77] x 136.457m
attr unit m
par Aloha.host[77] y 104.556m
attr unit m
par Aloha.host[77] txrate 1000Bps
attr unit Bps
par Aloha.host[78] typename "\"Host\""
par Aloha.host[78] arrrate 0.7
par Aloha.host[78] packet_size 1B
attr unit B
par Aloha.host[78] x 32.6977m
attr unit m
par Aloha.host[78] y 136.237m
attr unit m
par Aloha.host[78] txrate 1000Bps
attr unit Bps
par Aloha.host[79] typename "\"Host\""
par Aloha.host[79] arrrate 0.7
par Aloha.host[79] packet_size 1B
attr unit B
par Aloha.host[79] x 129.645m
attr unit m
par Aloha.host[79] y 17.6399m
attr unit m
par Aloha.host[79] txrate 1000Bps
attr unit Bps
par Aloha.host[80] typename "\"Host\""
par Aloha.host[80] arrrate 0.7
par Aloha.host[80] packet_size 1B
attr unit B
par Aloha.host[80] x 50.3228m
attr unit m
par Aloha.host[80] y 125.802m
attr unit m
par Aloha.host[80] txrate 1000Bps
attr unit Bps
par Aloha.host[81] typename "\"Host\""
par Aloha.host[81] arrrate 0.7
par Aloha.host[81] packet_size 1B
attr unit B
par Aloha.host[81] x 8.2751m
attr unit m
par Aloha.host[81] y 155.894m
attr unit m
par Aloha.host[81] txrate 1000Bps
attr unit Bps
par Aloha.host[82] typename "\"Host\""
par Aloha.host[82] arrrate 0.7
par Aloha.host[82] packet_size 1B
attr unit B
par Aloha.host[82] x 191.745m
attr unit m
par Aloha.host[82] y 39.3324m
attr unit m
par Aloha.host[82] txrate 1000Bps
attr unit Bps
par Aloha.host[83] typename "\"Host\""
par Aloha.host[83] arrrate 0.7
par Aloha.host[83] packet_size 1B
attr unit B
par Aloha.host[83] x 13.2441m
attr unit m
par Aloha.host[83] y 96.3693m
attr unit m
par Aloha.host[83] txrate 1000Bps
attr unit Bps
par Aloha.host[84] typename "\"Host\""
par Aloha.host[84] arrrate 0.7
par Aloha.host[84] packet_size 1B
attr unit B
par Aloha.host[84] x 102.588m
attr unit m
par Aloha.host[84] y 75.2623m
attr unit m
par Aloha.host[84] txrate 1000Bps
attr unit Bps
par Aloha.host[85] typename "\"Host\""
par Aloha.host[85] arrrate 0.7
par Aloha.host[85] packet_size 1B
attr unit B
par Aloha.host[85] x 68.2593m
attr unit m
par Aloha.host[85] y 9.53651m
attr unit m
par Aloha.host[85] txrate 1000Bps
attr unit Bps
par Aloha.host[86] typename "\"Host\""
par Aloha.host[86] arrrate 0.7
par Aloha.host[86] packet_size 1B
attr unit B
par Aloha.host[86] x 132.002m
attr unit m
par Aloha.host[86] y 63.2555m
attr unit m
par Aloha.host[86] txrate 1000Bps
attr unit Bps
par Aloha.host[87] typename "\"Host\""
par Aloha.host[87] arrrate 0.7
par Aloha.host[87] packet_size 1B
attr unit B
par Aloha.host[87] x 168.885m
attr unit m
par Aloha.host[87] y 129.835m
attr unit m
par Aloha.host[87] txrate 1000Bps
attr unit Bps
par Aloha.host[88] typename "\"Host\""
par Aloha.host[88] arrrate 0.7
par Aloha.host[88] packet_size 1B
attr unit B
par Aloha.host[88] x 120.773m
attr unit m
par Aloha.host[88] y 51.2822m
attr unit m
par Aloha.host[88] txrate 1000Bps
attr unit Bps
par Aloha.host[89] typename "\"Host\""
par Aloha.host[89] arrrate 0.7
par Aloha.host[89] packet_size 1B
attr unit B
par Aloha.host[89] x 117.443m
attr unit m
par Aloha.host[89] y 90.6515m
attr unit m
par Aloha.host[89] txrate 1000Bps
attr unit Bps
par Aloha.host[90] typename "\"Host\""
par Aloha.host[90] arrrate 0.7
par Aloha.host[90] packet_size 1B
attr unit B
par Aloha.host[90] x 23.4066m
attr unit m
par Aloha.host[90] y 26.0806m
attr unit m
par Aloha.host[90] txrate 1000Bps
attr unit Bps
par Aloha.host[91] typename "\"Host\""
par Aloha.host[91] arrrate 0.7
par Aloha.host[91] packet_size 1B
attr unit B
par Aloha.host[91] x 142.09m
attr unit m
par Aloha.host[91] y 175.993m
attr unit m
par Aloha.host[91] txrate 1000Bps
attr unit Bps
par Aloha.host[92] typename "\"Host\""
par Aloha.host[92] arrrate 0.7
par Aloha.host[92] packet_size 1B
attr unit B
par Aloha.host[92] x 40.9047m
attr unit m
par Aloha.host[92] y 198.226m
attr unit m
par Aloha.host[92] txrate 1000Bps
attr unit Bps
par Aloha.host[93] typename "\"Host\""
par Aloha.host[93] arrrate 0.7
par Aloha.host[93] packet_size 1B
attr unit B
par Aloha.host[93] x 98.0736m
attr unit m
par Aloha.host[93] y 19.0699m
attr unit m
par Aloha.host[93] txrate 1000Bps
attr unit Bps
par Aloha.host[94] typename "\"Host\""
par Aloha.host[94] arrrate 0.7
par Aloha.host[94] packet_size 1B
attr unit B
par Aloha.host[94] x 7.3217m
attr unit m
par Aloha.host[94] y 156.108m
attr unit m
par Aloha.host[94] txrate 1000Bps
attr unit Bps
par Aloha.host[95] typename "\"Host\""
par Aloha.host[95] arrrate 0.7
par Aloha.host[95] packet_size 1B
attr unit B
par Aloha.host[95] x 63.0807m
attr unit m
par Aloha.host[95] y 63.7202m
attr unit m
par Aloha.host[95] txrate 1000Bps
attr unit Bps
par Aloha.host[96] typename "\"Host\""
par Aloha.host[96] arrrate 0.7
par Aloha.host[96] packet_size 1B
attr unit B
par Aloha.host[96] x 172.606m
attr unit m
par Aloha.host[96] y 87.1577m
attr unit m
par Aloha.host[96] txrate 1000Bps
attr unit Bps
par Aloha.host[97] typename "\"Host\""
par Aloha.host[97] arrrate 0.7
par Aloha.host[97] packet_size 1B
attr unit B
par Aloha.host[97] x 111.693m
attr unit m
par Aloha.host[97] y 132.378m
attr unit m
par Aloha.host[97] txrate 1000Bps
attr unit Bps
par Aloha.host[98] typename "\"Host\""
par Aloha.host[98] arrrate 0.7
par Aloha.host[98] packet_size 1B
attr unit B
par Aloha.host[98] x 109.342m
attr unit m
par Aloha.host[98] y 64.5297m
attr unit m
par Aloha.host[98] txrate 1000Bps
attr unit Bps
par Aloha.host[99] typename "\"Host\""
par Aloha.host[99] arrrate 0.7
par Aloha.host[99] packet_size 1B
attr unit B
par Aloha.host[99] x 73.5649m
attr unit m
par Aloha.host[99] y 4.90229m
attr unit m
par Aloha.host[99] txrate 1000Bps
attr unit Bps
par Aloha.host[100] typename "\"Host\""
par Aloha.host[100] arrrate 0.7
par Aloha.host[100] packet_size 1B
attr unit B
par Aloha.host[100] x 165.631m
attr unit m
par Aloha.host[100] y 140.398m
attr unit m
par Aloha.host[100] txrate 1000Bps
attr unit Bps
par Aloha.host[101] typename "\"Host\""
par Aloha.host[101] arrrate 0.7
par Aloha.host[101] packet_size 1B
attr unit B
par Aloha.host[101] x 55.2701m
attr unit m
par Aloha.host[101] y 159.361m
attr unit m
par Aloha.host[101] txrate 1000Bps
attr unit Bps
par Aloha.host[102] typename "\"Host\""
par Aloha.host[102] arrrate 0.7
par Aloha.host[102] packet_size 1B
attr unit B
par Aloha.host[102] x 25.1317m
attr unit m
par Aloha.host[102] y 24.5484m
attr unit m
par Aloha.host[102] txrate 1000Bps
attr unit Bps
par Aloha.host[103] typename "\"Host\""
par Aloha.host[103] arrrate 0.7
par Aloha.host[103] packet_size 1B
attr unit B
par Aloha.host[103] x 112.556m
attr unit m
par Aloha.host[103] y 170.179m
attr unit m
par Aloha.host[103] txrate 1000Bps
attr unit Bps
par Aloha.host[104] typename "\"Host\""
par Aloha.host[104] arrrate 0.7
par Aloha.host[104] packet_size 1B
attr unit B
par Aloha.host[104] x 53.4678m
attr unit m
par Aloha.host[104] y 181.414m
attr unit m
par Aloha.host[104] txrate 1000Bps
attr unit Bps
par Aloha.host[105] typename "\"Host\""
par Aloha.host[105] arrrate 0.7
par Aloha.host[105] packet_size 1B
attr unit B
par Aloha.host[105] x 155.007m
attr unit m
par Aloha.host[105] y 39.5845m
attr unit m
par Aloha.host[105] txrate 1000Bps
attr unit Bps
par Aloha.host[106] typename "\"Host\""
par Aloha.host[106] arrrate 0.7
par Aloha.host[106] packet_size 1B
attr unit B
par Aloha.host[106] x 35.8813m
attr unit m
par Aloha.host[106] y 17.42m
attr unit m
par Aloha.host[106] txrate 1000Bps
attr unit Bps
par Aloha.host[107] typename "\"Host\""
par Aloha.host[107] arrrate 0.7
par Aloha.host[107] packet_size 1B
attr unit B
par Aloha.host[107] x 156.651m
attr unit m
par Aloha.host[107] y 173.552m
attr unit m
par Aloha.host[107] txrate 1000Bps
attr unit Bps
par Aloha.host[108] typename "\"Host\""
par Aloha.host[108] arrrate 0.7
par Aloha.host[108] packet_size 1B
attr unit B
par Aloha.host[108] x 121.599m
attr unit m
par Aloha.host[108] y 162.948m
attr unit m
par Aloha.host[108] txrate 1000Bps
attr unit Bps
par Aloha.host[109] typename "\"Host\""
par Aloha.host[109] arrrate 0.7
par Aloha.host[109] packet_size 1B
attr unit B
par Aloha.host[109] x 8.34977m
attr unit m
par Aloha.host[109] y 60.7767m
attr unit m
par Aloha.host[109] txrate 1000Bps
attr unit Bps
par Aloha.host[110] typename "\"Host\""
par Aloha.host[110] arrrate 0.7
par Aloha.host[110] packet_size 1B
attr unit B
par Aloha.host[110] x 112.255m
attr unit m
par Aloha.host[110] y 5.13128m
attr unit m
par Aloha.host[110] txrate 1000Bps
attr unit Bps
par Aloha.host[111] typename "\"Host\""
par Aloha.host[111] arrrate 0.7
par Aloha.host[111] packet_size 1B
attr unit B
par Aloha.host[111] x 133.628m
attr unit m
par Aloha.host[111] y 151.908m
attr unit m
par Aloha.host[111] txrate 1000Bps
attr unit Bps
par Aloha.host[112] typename "\"Host\""
par Aloha.host[112] arrrate 0.7
par Aloha.host[112] packet_size 1B
attr unit B
par Aloha.host[112] x 187.679m
attr unit m
par Aloha.host[112] y 127.757m
attr unit m
par Aloha.host[112] txrate 1000Bps
attr unit Bps
par Aloha.host[113] typename "\"Host\""
par Aloha.host[113] arrrate 0.7
par Aloha.host[113] packet_size 1B
attr unit B
par Aloha.host[113] x 157.201m
attr unit m
par Aloha.host[113] y 112.886m
attr unit m
par Aloha.host[113] txrate 1000Bps
attr unit Bps
par Aloha.host[114] typename "\"Host\""
par Aloha.host[114] arrrate 0.7
par Aloha.host[114] packet_size 1B
attr unit B
par Aloha.host[114] x 150.086m
attr unit m
par Aloha.host[114] y 181.899m
attr unit m
par Aloha.host[114] txrate 1000Bps
attr unit Bps
par Aloha.host[115] typename "\"Host\""
par Aloha.host[115] arrrate 0.7
par Aloha.host[115] packet_size 1B
attr unit B
par Aloha.host[115] x 99.4102m
attr unit m
par Aloha.host[115] y 135.339m
attr unit m
par Aloha.host[115] txrate 1000Bps
attr unit Bps
par Aloha.host[116] typename "\"Host\""
par Aloha.host[116] arrrate 0.7
par Aloha.host[116] packet_size 1B
attr unit B
par Aloha.host[116] x 8.5465m
attr unit m
par Aloha.host[116] y 56.7211m
attr unit m
par Aloha.host[116] txrate 1000Bps
attr unit Bps
par Aloha.host[117] typename "\"Host\""
par Aloha.host[117] arrrate 0.7
par Aloha.host[117] packet_size 1B
attr unit B
par Aloha.host[117] x 163.373m
attr unit m
par Aloha.host[117] y 89.9992m
attr unit m
par Aloha.host[117] txrate 1000Bps
attr unit Bps
par Aloha.host[118] typename "\"Host\""
par Aloha.host[118] arrrate 0.7
par Aloha.host[118] packet_size 1B
attr unit B
par Aloha.host[118] x 2.72475m
attr unit m
par Aloha.host[118] y 198.456m
attr unit m
par Aloha.host[118] txrate 1000Bps
attr unit Bps
par Aloha.host[119] typename "\"Host\""
par Aloha.host[119] arrrate 0.7
par Aloha.host[119] packet_size 1B
attr unit B
par Aloha.host[119] x 110.008m
attr unit m
par Aloha.host[119] y 50.6215m
attr unit m
par Aloha.host[119] txrate 1000Bps
attr unit Bps
par Aloha.host[120] typename "\"Host\""
par Aloha.host[120] arrrate 0.7
par Aloha.host[120] packet_size 1B
attr unit B
par Aloha.host[120] x 113.359m
attr unit m
par Aloha.host[120] y 176.997m
attr unit m
par Aloha.host[120] txrate 1000Bps
attr unit Bps
par Aloha.host[121] typename "\"Host\""
par Aloha.host[121] arrrate 0.7
par Aloha.host[121] packet_size 1B
attr unit B
par Aloha.host[121] x 22.5837m
attr unit m
par Aloha.host[121] y 68.9348m
attr unit m
par Aloha.host[121] txrate 1000Bps
attr unit Bps
par Aloha.host[122] typename "\"Host\""
par Aloha.host[122] arrrate 0.7
par Aloha.host[122] packet_size 1B
attr unit B
par Aloha.host[122] x 12.5552m
attr unit m
par Aloha.host[122] y 56.5071m
attr unit m
par Aloha.host[122] txrate 1000Bps
attr unit Bps
par Aloha.host[123] typename "\"Host\""
par Aloha.host[123] arrrate 0.7
par Aloha.host[123] packet_size 1B
attr unit B
par Aloha.host[123] x 114.945m
attr unit m
par Aloha.host[123] y 140.327m
attr unit m
par Aloha.host[123] txrate 1000Bps
attr unit Bps
par Aloha.host[124] typename "\"Host\""
par Aloha.host[124] arrrate 0.7
par Aloha.host[124] packet_size 1B
attr unit B
par Aloha.host[124] x 97.0971m
attr unit m
par Aloha.host[124] y 70.3805m
attr unit m
par Aloha.host[124] txrate 1000Bps
attr unit Bps
par Aloha.host[125] typename "\"Host\""
par Aloha.host[125] arrrate 0.7
par Aloha.host[125] packet_size 1B
attr unit B
par Aloha.host[125] x 60.2844m
attr unit m
par Aloha.host[125] y 9.29476m
attr unit m
par Aloha.host[125] txrate 1000Bps
attr unit Bps
par Aloha.host[126] typename "\"Host\""
par Aloha.host[126] arrrate 0.7
par Aloha.host[126] packet_size 1B
attr unit B
par Aloha.host[126] x 7.95911m
attr unit m
par Aloha.host[126] y 77.1021m
attr unit m
par Aloha.host[126] txrate 1000Bps
attr unit Bps
par Aloha.host[127] typename "\"Host\""
par Aloha.host[127] arrrate 0.7
par Aloha.host[127] packet_size 1B
attr unit B
par Aloha.host[127] x 126.779m
attr unit m
par Aloha.host[127] y 158.015m
attr unit m
par Aloha.host[127] txrate 1000Bps
attr unit Bps
par Aloha.host[128] typename "\"Host\""
par Aloha.host[128] arrrate 0.7
par Aloha.host[128] packet_size 1B
attr unit B
par Aloha.host[128] x 24.8671m
attr unit m
par Aloha.host[128] y 181.701m
attr unit m
par Aloha.host[128] txrate 1000Bps
attr unit Bps
par Aloha.host[129] typename "\"Host\""
par Aloha.host[129] arrrate 0.7
par Aloha.host[129] packet_size 1B
attr unit B
par Aloha.host[129] x 2.32117m
attr unit m
par Aloha.host[129] y 13.791m
attr unit m
par Aloha.host[129] txrate 1000Bps
attr unit Bps
par Aloha.host[130] typename "\"Host\""
par Aloha.host[130] arrrate 0.7
par Aloha.host[130] packet_size 1B
attr unit B
par Aloha.host[130] x 55.3333m
attr unit m
par Aloha.host[130] y 189.189m
attr unit m
par Aloha.host[130] txrate 1000Bps
attr unit Bps
par Aloha.host[131] typename "\"Host\""
par Aloha.host[131] arrrate 0.7
par Aloha.host[131] packet_size 1B
attr unit B
par Aloha.host[131] x 60.3091m
attr unit m
par Aloha.host[131] y 55.9942m
attr unit m
par Aloha.host[131] txrate 1000Bps
attr unit Bps
par Aloha.host[132] typename "\"Host\""
par Aloha.host[132] arrrate 0.7
par Aloha.host[132] packet_size 1B
attr unit B
par Aloha.host[132] x 36.0635m
attr unit m
par Aloha.host[132] y 163.744m
attr unit m
par Aloha.host[132] txrate 1000Bps
attr unit Bps
par Aloha.host[133] typename "\"Host\""
par Aloha.host[133] arrrate 0.7
par Aloha.host[133] packet_size 1B
attr unit B
par Aloha.host[133] x 13.3956m
attr unit m
par Aloha.host[133] y 6.17248m
attr unit m
par Aloha.host[133] txrate 1000Bps
attr unit Bps
par Aloha.host[134] typename "\"Host\""
par Aloha.host[134] arrrate 0.7
par Aloha.host[134] packet_size 1B
attr unit B
par Aloha.host[134] x 155.847m
attr unit m
par Aloha.host[134] y 164.544m
attr unit m
par Aloha.host[134] txrate 1000Bps
attr unit Bps
par Aloha.host[135] typename "\"Host\""
par Aloha.host[135] arrrate 0.7
par Aloha.host[135] packet_size 1B
attr unit B
par Aloha.host[135] x 80.1497m
attr unit m
par Aloha.host[135] y 142.078m
attr unit m
par Aloha.host[135] txrate 1000Bps
attr unit Bps
par Aloha.host[136] typename "\"Host\""
par Aloha.host[136] arrrate 0.7
par Aloha.host[136] packet_size 1B
attr unit B
par Aloha.host[136] x 49.163m
attr unit m
par Aloha.host[136] y 170.21m
attr unit m
par Aloha.host[136] txrate 1000Bps
attr unit Bps
par Aloha.host[137] typename "\"Host\""
par Aloha.host[137] arrrate 0.7
par Aloha.host[137] packet_size 1B
attr unit B
par Aloha.host[137] x 104.754m
attr unit m
par Aloha.host[137] y 8.72433m
attr unit m
par Aloha.host[137] txrate 1000Bps
attr unit Bps
par Aloha.host[138] typename "\"Host\""
par Aloha.host[138] arrrate 0.7
par Aloha.host[138] packet_size 1B
attr unit B
par Aloha.host[138] x 50.9971m
attr unit m
par Aloha.host[138] y 101.37m
attr unit m
par Aloha.host[138] txrate 1000Bps
attr unit Bps
par Aloha.host[139] typename "\"Host\""
par Aloha.host[139] arrrate 0.7
par Aloha.host[139] packet_size 1B
attr unit B
par Aloha.host[139] x 170.382m
attr unit m
par Aloha.host[139] y 41.473m
attr unit m
par Aloha.host[139] txrate 1000Bps
attr unit Bps
par Aloha.host[140] typename "\"Host\""
par Aloha.host[140] arrrate 0.7
par Aloha.host[140] packet_size 1B
attr unit B
par Aloha.host[140] x 96.7007m
attr unit m
par Aloha.host[140] y 146.231m
attr unit m
par Aloha.host[140] txrate 1000Bps
attr unit Bps
par Aloha.host[141] typename "\"Host\""
par Aloha.host[141] arrrate 0.7
par Aloha.host[141] packet_size 1B
attr unit B
par Aloha.host[141] x 124.63m
attr unit m
par Aloha.host[141] y 128.959m
attr unit m
par Aloha.host[141] txrate 1000Bps
attr unit Bps
par Aloha.host[142] typename "\"Host\""
par Aloha.host[142] arrrate 0.7
par Aloha.host[142] packet_size 1B
attr unit B
par Aloha.host[142] x 194.614m
attr unit m
par Aloha.host[142] y 156.833m
attr unit m
par Aloha.host[142] txrate 1000Bps
attr unit Bps
par Aloha.host[143] typename "\"Host\""
par Aloha.host[143] arrrate 0.7
par Aloha.host[143] packet_size 1B
attr unit B
par Aloha.host[143] x 70.9495m
attr unit m
par Aloha.host[143] y 85.7442m
attr unit m
par Aloha.host[143] txrate 1000Bps
attr unit Bps
par Aloha.host[144] typename "\"Host\""
par Aloha.host[144] arrrate 0.7
par Aloha.host[144] packet_size 1B
attr unit B
par Aloha.host[144] x 44.9291m
attr unit m
par Aloha.host[144] y 126.044m
attr unit m
par Aloha.host[144] txrate 1000Bps
attr unit Bps
par Aloha.host[145] typename "\"Host\""
par Aloha.host[145] arrrate 0.7
par Aloha.host[145] packet_size 1B
attr unit B
par Aloha.host[145] x 195.743m
attr unit m
par Aloha.host[145] y 70.6837m
attr unit m
par Aloha.host[145] txrate 1000Bps
attr unit Bps
par Aloha.host[146] typename "\"Host\""
par Aloha.host[146] arrrate 0.7
par Aloha.host[146] packet_size 1B
attr unit B
par Aloha.host[146] x 117.415m
attr unit m
par Aloha.host[146] y 190.729m
attr unit m
par Aloha.host[146] txrate 1000Bps
attr unit Bps
par Aloha.host[147] typename "\"Host\""
par Aloha.host[147] arrrate 0.7
par Aloha.host[147] packet_size 1B
attr unit B
par Aloha.host[147] x 196.336m
attr unit m
par Aloha.host[147] y 123.246m
attr unit m
par Aloha.host[147] txrate 1000Bps
attr unit Bps
par Aloha.host[148] typename "\"Host\""
par Aloha.host[148] arrrate 0.7
par Aloha.host[148] packet_size 1B
attr unit B
par Aloha.host[148] x 193.733m
attr unit m
par Aloha.host[148] y 98.1209m
attr unit m
par Aloha.host[148] txrate 1000Bps
attr unit Bps
par Aloha.host[149] typename "\"Host\""
par Aloha.host[149] arrrate 0.7
par Aloha.host[149] packet_size 1B
attr unit B
par Aloha.host[149] x 141.021m
attr unit m
par Aloha.host[149] y 51.2766m
attr unit m
par Aloha.host[149] txrate 1000Bps
attr unit Bps
par Aloha.host[150] typename "\"Host\""
par Aloha.host[150] arrrate 0.7
par Aloha.host[150] packet_size 1B
attr unit B
par Aloha.host[150] x 3.87716m
attr unit m
par Aloha.host[150] y 47.3743m
attr unit m
par Aloha.host[150] txrate 1000Bps
attr unit Bps
par Aloha.host[151] typename "\"Host\""
par Aloha.host[151] arrrate 0.7
par Aloha.host[151] packet_size 1B
attr unit B
par Aloha.host[151] x 122.566m
attr unit m
par Aloha.host[151] y 104.323m
attr unit m
par Aloha.host[151] txrate 1000Bps
attr unit Bps
par Aloha.host[152] typename "\"Host\""
par Aloha.host[152] arrrate 0.7
par Aloha.host[152] packet_size 1B
attr unit B
par Aloha.host[152] x 49.9118m
attr unit m
par Aloha.host[152] y 134.019m
attr unit m
par Aloha.host[152] txrate 1000Bps
attr unit Bps
par Aloha.host[153] typename "\"Host\""
par Aloha.host[153] arrrate 0.7
par Aloha.host[153] packet_size 1B
attr unit B
par Aloha.host[153] x 25.8871m
attr unit m
par Aloha.host[153] y 109.942m
attr unit m
par Aloha.host[153] txrate 1000Bps
attr unit Bps
par Aloha.host[154] typename "\"Host\""
par Aloha.host[154] arrrate 0.7
par Aloha.host[154] packet_size 1B
attr unit B
par Aloha.host[154] x 73.2522m
attr unit m
par Aloha.host[154] y 76.2772m
attr unit m
par Aloha.host[154] txrate 1000Bps
attr unit Bps
par Aloha.host[155] typename "\"Host\""
par Aloha.host[155] arrrate 0.7
par Aloha.host[155] packet_size 1B
attr unit B
par Aloha.host[155] x 40.0187m
attr unit m
par Aloha.host[155] y 128.797m
attr unit m
par Aloha.host[155] txrate 1000Bps
attr unit Bps
par Aloha.host[156] typename "\"Host\""
par Aloha.host[156] arrrate 0.7
par Aloha.host[156] packet_size 1B
attr unit B
par Aloha.host[156] x 153.296m
attr unit m
par Aloha.host[156] y 179.555m
attr unit m
par Aloha.host[156] txrate 1000Bps
attr unit Bps
par Aloha.host[157] typename "\"Host\""
par Aloha.host[157] arrrate 0.7
par Aloha.host[157] packet_size 1B
attr unit B
par Aloha.host[157] x 186.836m
attr unit m
par Aloha.host[157] y 103.562m
attr unit m
par Aloha.host[157] txrate 1000Bps
attr unit Bps
par Aloha.host[158] typename "\"Host\""
par Aloha.host[158] arrrate 0.7
par Aloha.host[158] packet_size 1B
attr unit B
par Aloha.host[158] x 5.28048m
attr unit m
par Aloha.host[158] y 176.244m
attr unit m
par Aloha.host[158] txrate 1000Bps
attr unit Bps
par Aloha.host[159] typename "\"Host\""
par Aloha.host[159] arrrate 0.7
par Aloha.host[159] packet_size 1B
attr unit B
par Aloha.host[159] x 51.2127m
attr unit m
par Aloha.host[159] y 38.7337m
attr unit m
par Aloha.host[159] txrate 1000Bps
attr unit Bps
par Aloha.host[160] typename "\"Host\""
par Aloha.host[160] arrrate 0.7
par Aloha.host[160] packet_size 1B
attr unit B
par Aloha.host[160] x 53.2396m
attr unit m
par Aloha.host[160] y 164.8m
attr unit m
par Aloha.host[160] txrate 1000Bps
attr unit Bps
par Aloha.host[161] typename "\"Host\""
par Aloha.host[161] arrrate 0.7
par Aloha.host[161] packet_size 1B
attr unit B
par Aloha.host[161] x 28.4655m
attr unit m
par Aloha.host[161] y 64.7997m
attr unit m
par Aloha.host[161] txrate 1000Bps
attr unit Bps
par Aloha.host[162] typename "\"Host\""
par Aloha.host[162] arrrate 0.7
par Aloha.host[162] packet_size 1B
attr unit B
par Aloha.host[162] x 190.3m
attr unit m
par Aloha.host[162] y 138.625m
attr unit m
par Aloha.host[162] txrate 1000Bps
attr unit Bps
par Aloha.host[163] typename "\"Host\""
par Aloha.host[163] arrrate 0.7
par Aloha.host[163] packet_size 1B
attr unit B
par Aloha.host[163] x 49.5224m
attr unit m
par Aloha.host[163] y 140.454m
attr unit m
par Aloha.host[163] txrate 1000Bps
attr unit Bps
par Aloha.host[164] typename "\"Host\""
par Aloha.host[164] arrrate 0.7
par Aloha.host[164] packet_size 1B
attr unit B
par Aloha.host[164] x 71.2372m
attr unit m
par Aloha.host[164] y 158.023m
attr unit m
par Aloha.host[164] txrate 1000Bps
attr unit Bps
par Aloha.host[165] typename "\"Host\""
par Aloha.host[165] arrrate 0.7
par Aloha.host[165] packet_size 1B
attr unit B
par Aloha.host[165] x 9.78782m
attr unit m
par Aloha.host[165] y 42.1155m
attr unit m
par Aloha.host[165] txrate 1000Bps
attr unit Bps
par Aloha.host[166] typename "\"Host\""
par Aloha.host[166] arrrate 0.7
par Aloha.host[166] packet_size 1B
attr unit B
par Aloha.host[166] x 47.6261m
attr unit m
par Aloha.host[166] y 131.395m
attr unit m
par Aloha.host[166] txrate 1000Bps
attr unit Bps
par Aloha.host[167] typename "\"Host\""
par Aloha.host[167] arrrate 0.7
par Aloha.host[167] packet_size 1B
attr unit B
par Aloha.host[167] x 176.565m
attr unit m
par Aloha.host[167] y 182.756m
attr unit m
par Aloha.host[167] txrate 1000Bps
attr unit Bps
par Aloha.host[168] typename "\"Host\""
par Aloha.host[168] arrrate 0.7
par Aloha.host[168] packet_size 1B
attr unit B
par Aloha.host[168] x 192.887m
attr unit m
par Aloha.host[168] y 46.014m
attr unit m
par Aloha.host[168] txrate 1000Bps
attr unit Bps
par Aloha.host[169] typename "\"Host\""
par Aloha.host[169] arrrate 0.7
par Aloha.host[169] packet_size 1B
attr unit B
par Aloha.host[169] x 131.206m
attr unit m
par Aloha.host[169] y 11.4866m
attr unit m
par Aloha.host[169] txrate 1000Bps
attr unit Bps
par Aloha.host[170] typename "\"Host\""
par Aloha.host[170] arrrate 0.7
par Aloha.host[170] packet_size 1B
attr unit B
par Aloha.host[170] x 59.3722m
attr unit m
par Aloha.host[170] y 58.0803m
attr unit m
par Aloha.host[170] txrate 1000Bps
attr unit Bps
par Aloha.host[171] typename "\"Host\""
par Aloha.host[171] arrrate 0.7
par Aloha.host[171] packet_size 1B
attr unit B
par Aloha.host[171] x 11.8672m
attr unit m
par Aloha.host[171] y 88.8392m
attr unit m
par Aloha.host[171] txrate 1000Bps
attr unit Bps
par Aloha.host[172] typename "\"Host\""
par Aloha.host[172] arrrate 0.7
par Aloha.host[172] packet_size 1B
attr unit B
par Aloha.host[172] x 172.887m
attr unit m
par Aloha.host[172] y 1.5842m
attr unit m
par Aloha.host[172] txrate 1000Bps
attr unit Bps
par Aloha.host[173] typename "\"Host\""
par Aloha.host[173] arrrate 0.7
par Aloha.host[173] packet_size 1B
attr unit B
par Aloha.host[173] x 31.0282m
attr unit m
par Aloha.host[173] y 154.339m
attr unit m
par Aloha.host[173] txrate 1000Bps
attr unit Bps
par Aloha.host[174] typename "\"Host\""
par Aloha.host[174] arrrate 0.7
par Aloha.host[174] packet_size 1B
attr unit B
par Aloha.host[174] x 53.9096m
attr unit m
par Aloha.host[174] y 45.7497m
attr unit m
par Aloha.host[174] txrate 1000Bps
attr unit Bps
par Aloha.host[175] typename "\"Host\""
par Aloha.host[175] arrrate 0.7
par Aloha.host[175] packet_size 1B
attr unit B
par Aloha.host[175] x 109.641m
attr unit m
par Aloha.host[175] y 139.491m
attr unit m
par Aloha.host[175] txrate 1000Bps
attr unit Bps
par Aloha.host[176] typename "\"Host\""
par Aloha.host[176] arrrate 0.7
par Aloha.host[176] packet_size 1B
attr unit B
par Aloha.host[176] x 50.4555m
attr unit m
par Aloha.host[176] y 165.687m
attr unit m
par Aloha.host[176] txrate 1000Bps
attr unit Bps
par Aloha.host[177] typename "\"Host\""
par Aloha.host[177] arrrate 0.7
par Aloha.host[177] packet_size 1B
attr unit B
par Aloha.host[177] x 168.936m
attr unit m
par Aloha.host[177] y 109.054m
attr unit m
par Aloha.host[177] txrate 1000Bps
attr unit Bps
par Aloha.host[178] typename "\"Host\""
par Aloha.host[178] arrrate 0.7
par Aloha.host[178] packet_size 1B
attr unit B
par Aloha.host[178] x 100.443m
attr unit m
par Aloha.host[178] y 100.636m
attr unit m
par Aloha.host[178] txrate 1000Bps
attr unit Bps
par Aloha.host[179] typename "\"Host\""
par Aloha.host[179] arrrate 0.7
par Aloha.host[179] packet_size 1B
attr unit B
par Aloha.host[179] x 96.9379m
attr unit m
par Aloha.host[179] y 29.2186m
attr unit m
par Aloha.host[179] txrate 1000Bps
attr unit Bps
par Aloha.host[180] typename "\"Host\""
par Aloha.host[180] arrrate 0.7
par Aloha.host[180] packet_size 1B
attr unit B
par Aloha.host[180] x 181.052m
attr unit m
par Aloha.host[180] y 138.73m
attr unit m
par Aloha.host[180] txrate 1000Bps
attr unit Bps
par Aloha.host[181] typename "\"Host\""
par Aloha.host[181] arrrate 0.7
par Aloha.host[181] packet_size 1B
attr unit B
par Aloha.host[181] x 183.054m
attr unit m
par Aloha.host[181] y 48.9182m
attr unit m
par Aloha.host[181] txrate 1000Bps
attr unit Bps
par Aloha.host[182] typename "\"Host\""
par Aloha.host[182] arrrate 0.7
par Aloha.host[182] packet_size 1B
attr unit B
par Aloha.host[182] x 48.3255m
attr unit m
par Aloha.host[182] y 85.3152m
attr unit m
par Aloha.host[182] txrate 1000Bps
attr unit Bps
par Aloha.host[183] typename "\"Host\""
par Aloha.host[183] arrrate 0.7
par Aloha.host[183] packet_size 1B
attr unit B
par Aloha.host[183] x 3.75338m
attr unit m
par Aloha.host[183] y 127.377m
attr unit m
par Aloha.host[183] txrate 1000Bps
attr unit Bps
par Aloha.host[184] typename "\"Host\""
par Aloha.host[184] arrrate 0.7
par Aloha.host[184] packet_size 1B
attr unit B
par Aloha.host[184] x 134.058m
attr unit m
par Aloha.host[184] y 24.4776m
attr unit m
par Aloha.host[184] txrate 1000Bps
attr unit Bps
par Aloha.host[185] typename "\"Host\""
par Aloha.host[185] arrrate 0.7
par Aloha.host[185] packet_size 1B
attr unit B
par Aloha.host[185] x 54.1127m
attr unit m
par Aloha.host[185] y 190.715m
attr unit m
par Aloha.host[185] txrate 1000Bps
attr unit Bps
par Aloha.host[186] typename "\"Host\""
par Aloha.host[186] arrrate 0.7
par Aloha.host[186] packet_size 1B
attr unit B
par Aloha.host[186] x 2.86129m
attr unit m
par Aloha.host[186] y 84.2963m
attr unit m
par Aloha.host[186] txrate 1000Bps
attr unit Bps
par Aloha.host[187] typename "\"Host\""
par Aloha.host[187] arrrate 0.7
par Aloha.host[187] packet_size 1B
attr unit B
par Aloha.host[187] x 19.4261m
attr unit m
par Aloha.host[187] y 89.8951m
attr unit m
par Aloha.host[187] txrate 1000Bps
attr unit Bps
par Aloha.host[188] typename "\"Host\""
par Aloha.host[188] arrrate 0.7
par Aloha.host[188] packet_size 1B
attr unit B
par Aloha.host[188] x 83.7675m
attr unit m
par Aloha.host[188] y 44.4136m
attr unit m
par Aloha.host[188] txrate 1000Bps
attr unit Bps
par Aloha.host[189] typename "\"Host\""
par Aloha.host[189] arrrate 0.7
par Aloha.host[189] packet_size 1B
attr unit B
par Aloha.host[189] x 24.1096m
attr unit m
par Aloha.host[189] y 28.9447m
attr unit m
par Aloha.host[189] txrate 1000Bps
attr unit Bps
par Aloha.host[190] typename "\"Host\""
par Aloha.host[190] arrrate 0.7
par Aloha.host[190] packet_size 1B
attr unit B
par Aloha.host[190] x 41.4178m
attr unit m
par Aloha.host[190] y 148.939m
attr unit m
par Aloha.host[190] txrate 1000Bps
attr unit Bps
par Aloha.host[191] typename "\"Host\""
par Aloha.host[191] arrrate 0.7
par Aloha.host[191] packet_size 1B
attr unit B
par Aloha.host[191] x 149.011m
attr unit m
par Aloha.host[191] y 170.379m
attr unit m
par Aloha.host[191] txrate 1000Bps
attr unit Bps
par Aloha.host[192] typename "\"Host\""
par Aloha.host[192] arrrate 0.7
par Aloha.host[192] packet_size 1B
attr unit B
par Aloha.host[192] x 91.1376m
attr unit m
par Aloha.host[192] y 88.2476m
attr unit m
par Aloha.host[192] txrate 1000Bps
attr unit Bps
par Aloha.host[193] typename "\"Host\""
par Aloha.host[193] arrrate 0.7
par Aloha.host[193] packet_size 1B
attr unit B
par Aloha.host[193] x 22.7019m
attr unit m
par Aloha.host[193] y 52.1002m
attr unit m
par Aloha.host[193] txrate 1000Bps
attr unit Bps
par Aloha.host[194] typename "\"Host\""
par Aloha.host[194] arrrate 0.7
par Aloha.host[194] packet_size 1B
attr unit B
par Aloha.host[194] x 43.0647m
attr unit m
par Aloha.host[194] y 19.4308m
attr unit m
par Aloha.host[194] txrate 1000Bps
attr unit Bps
par Aloha.host[195] typename "\"Host\""
par Aloha.host[195] arrrate 0.7
par Aloha.host[195] packet_size 1B
attr unit B
par Aloha.host[195] x 186.049m
attr unit m
par Aloha.host[195] y 12.3324m
attr unit m
par Aloha.host[195] txrate 1000Bps
attr unit Bps
par Aloha.host[196] typename "\"Host\""
par Aloha.host[196] arrrate 0.7
par Aloha.host[196] packet_size 1B
attr unit B
par Aloha.host[196] x 1.57895m
attr unit m
par Aloha.host[196] y 26.3537m
attr unit m
par Aloha.host[196] txrate 1000Bps
attr unit Bps
par Aloha.host[197] typename "\"Host\""
par Aloha.host[197] arrrate 0.7
par Aloha.host[197] packet_size 1B
attr unit B
par Aloha.host[197] x 128.374m
attr unit m
par Aloha.host[197] y 190.91m
attr unit m
par Aloha.host[197] txrate 1000Bps
attr unit Bps
par Aloha.host[198] typename "\"Host\""
par Aloha.host[198] arrrate 0.7
par Aloha.host[198] packet_size 1B
attr unit B
par Aloha.host[198] x 128.933m
attr unit m
par Aloha.host[198] y 157.37m
attr unit m
par Aloha.host[198] txrate 1000Bps
attr unit Bps
par Aloha.host[199] typename "\"Host\""
par Aloha.host[199] arrrate 0.7
par Aloha.host[199] packet_size 1B
attr unit B
par Aloha.host[199] x 136.05m
attr unit m
par Aloha.host[199] y 64.253m
attr unit m
par Aloha.host[199] txrate 1000Bps
attr unit Bps
par Aloha.host[200] typename "\"Host\""
par Aloha.host[200] arrrate 0.7
par Aloha.host[200] packet_size 1B
attr unit B
par Aloha.host[200] x 115.631m
attr unit m
par Aloha.host[200] y 86.1271m
attr unit m
par Aloha.host[200] txrate 1000Bps
attr unit Bps
par Aloha.host[201] typename "\"Host\""
par Aloha.host[201] arrrate 0.7
par Aloha.host[201] packet_size 1B
attr unit B
par Aloha.host[201] x 156.906m
attr unit m
par Aloha.host[201] y 105.027m
attr unit m
par Aloha.host[201] txrate 1000Bps
attr unit Bps
par Aloha.host[202] typename "\"Host\""
par Aloha.host[202] arrrate 0.7
par Aloha.host[202] packet_size 1B
attr unit B
par Aloha.host[202] x 164.369m
attr unit m
par Aloha.host[202] y 112.951m
attr unit m
par Aloha.host[202] txrate 1000Bps
attr unit Bps
par Aloha.host[203] typename "\"Host\""
par Aloha.host[203] arrrate 0.7
par Aloha.host[203] packet_size 1B
attr unit B
par Aloha.host[203] x 129.366m
attr unit m
par Aloha.host[203] y 158.65m
attr unit m
par Aloha.host[203] txrate 1000Bps
attr unit Bps
par Aloha.host[204] typename "\"Host\""
par Aloha.host[204] arrrate 0.7
par Aloha.host[204] packet_size 1B
attr unit B
par Aloha.host[204] x 35.9279m
attr unit m
par Aloha.host[204] y 22.0267m
attr unit m
par Aloha.host[204] txrate 1000Bps
attr unit Bps
par Aloha.host[205] typename "\"Host\""
par Aloha.host[205] arrrate 0.7
par Aloha.host[205] packet_size 1B
attr unit B
par Aloha.host[205] x 145.255m
attr unit m
par Aloha.host[205] y 90.3161m
attr unit m
par Aloha.host[205] txrate 1000Bps
attr unit Bps
par Aloha.host[206] typename "\"Host\""
par Aloha.host[206] arrrate 0.7
par Aloha.host[206] packet_size 1B
attr unit B
par Aloha.host[206] x 56.9424m
attr unit m
par Aloha.host[206] y 110.734m
attr unit m
par Aloha.host[206] txrate 1000Bps
attr unit Bps
par Aloha.host[207] typename "\"Host\""
par Aloha.host[207] arrrate 0.7
par Aloha.host[207] packet_size 1B
attr unit B
par Aloha.host[207] x 168.295m
attr unit m
par Aloha.host[207] y 182.647m
attr unit m
par Aloha.host[207] txrate 1000Bps
attr unit Bps
par Aloha.host[208] typename "\"Host\""
par Aloha.host[208] arrrate 0.7
par Aloha.host[208] packet_size 1B
attr unit B
par Aloha.host[208] x 114.033m
attr unit m
par Aloha.host[208] y 184.804m
attr unit m
par Aloha.host[208] txrate 1000Bps
attr unit Bps
par Aloha.host[209] typename "\"Host\""
par Aloha.host[209] arrrate 0.7
par Aloha.host[209] packet_size 1B
attr unit B
par Aloha.host[209] x 17.0535m
attr unit m
par Aloha.host[209] y 95.7918m
attr unit m
par Aloha.host[209] txrate 1000Bps
attr unit Bps
par Aloha.host[210] typename "\"Host\""
par Aloha.host[210] arrrate 0.7
par Aloha.host[210] packet_size 1B
attr unit B
par Aloha.host[210] x 182.19m
attr unit m
par Aloha.host[210] y 22.2533m
attr unit m
par Aloha.host[210] txrate 1000Bps
attr unit Bps
par Aloha.host[211] typename "\"Host\""
par Aloha.host[211] arrrate 0.7
par Aloha.host[211] packet_size 1B
attr unit B
par Aloha.host[211] x 92.4912m
attr unit m
par Aloha.host[211] y 140.398m
attr unit m
par Aloha.host[211] txrate 1000Bps
attr unit Bps
par Aloha.host[212] typename "\"Host\""
par Aloha.host[212] arrrate 0.7
par Aloha.host[212] packet_size 1B
attr unit B
par Aloha.host[212] x 188.581m
attr unit m
par Aloha.host[212] y 101.078m
attr unit m
par Aloha.host[212] txrate 1000Bps
attr unit Bps
par Aloha.host[213] typename "\"Host\""
par Aloha.host[213] arrrate 0.7
par Aloha.host[213] packet_size 1B
attr unit B
par Aloha.host[213] x 8.09846m
attr unit m
par Aloha.host[213] y 21.1214m
attr unit m
par Aloha.host[213] txrate 1000Bps
attr unit Bps
par Aloha.host[214] typename "\"Host\""
par Aloha.host[214] arrrate 0.7
par Aloha.host[214] packet_size 1B
attr unit B
par Aloha.host[214] x 21.491m
attr unit m
par Aloha.host[214] y 176.396m
attr unit m
par Aloha.host[214] txrate 1000Bps
attr unit Bps
par Aloha.host[215] typename "\"Host\""
par Aloha.host[215] arrrate 0.7
par Aloha.host[215] packet_size 1B
attr unit B
par Aloha.host[215] x 151.144m
attr unit m
par Aloha.host[215] y 13.4264m
attr unit m
par Aloha.host[215] txrate 1000Bps
attr unit Bps
par Aloha.host[216] typename "\"Host\""
par Aloha.host[216] arrrate 0.7
par Aloha.host[216] packet_size 1B
attr unit B
par Aloha.host[216] x 8.35552m
attr unit m
par Aloha.host[216] y 87.2926m
attr unit m
par Aloha.host[216] txrate 1000Bps
attr unit Bps
par Aloha.host[217] typename "\"Host\""
par Aloha.host[217] arrrate 0.7
par Aloha.host[217] packet_size 1B
attr unit B
par Aloha.host[217] x 90.3126m
attr unit m
par Aloha.host[217] y 138.347m
attr unit m
par Aloha.host[217] txrate 1000Bps
attr unit Bps
par Aloha.host[218] typename "\"Host\""
par Aloha.host[218] arrrate 0.7
par Aloha.host[218] packet_size 1B
attr unit B
par Aloha.host[218] x 163.217m
attr unit m
par Aloha.host[218] y 43.741m
attr unit m
par Aloha.host[218] txrate 1000Bps
attr unit Bps
par Aloha.host[219] typename "\"Host\""
par Aloha.host[219] arrrate 0.7
par Aloha.host[219] packet_size 1B
attr unit B
par Aloha.host[219] x 83.8395m
attr unit m
par Aloha.host[219] y 26.3194m
attr unit m
par Aloha.host[219] txrate 1000Bps
attr unit Bps
par Aloha.host[220] typename "\"Host\""
par Aloha.host[220] arrrate 0.7
par Aloha.host[220] packet_size 1B
attr unit B
par Aloha.host[220] x 37.9918m
attr unit m
par Aloha.host[220] y 165.766m
attr unit m
par Aloha.host[220] txrate 1000Bps
attr unit Bps
par Aloha.host[221] typename "\"Host\""
par Aloha.host[221] arrrate 0.7
par Aloha.host[221] packet_size 1B
attr unit B
par Aloha.host[221] x 168.682m
attr unit m
par Aloha.host[221] y 110.705m
attr unit m
par Aloha.host[221] txrate 1000Bps
attr unit Bps
par Aloha.host[222] typename "\"Host\""
par Aloha.host[222] arrrate 0.7
par Aloha.host[222] packet_size 1B
attr unit B
par Aloha.host[222] x 21.4493m
attr unit m
par Aloha.host[222] y 44.8964m
attr unit m
par Aloha.host[222] txrate 1000Bps
attr unit Bps
par Aloha.host[223] typename "\"Host\""
par Aloha.host[223] arrrate 0.7
par Aloha.host[223] packet_size 1B
attr unit B
par Aloha.host[223] x 57.6037m
attr unit m
par Aloha.host[223] y 112.304m
attr unit m
par Aloha.host[223] txrate 1000Bps
attr unit Bps
par Aloha.host[224] typename "\"Host\""
par Aloha.host[224] arrrate 0.7
par Aloha.host[224] packet_size 1B
attr unit B
par Aloha.host[224] x 43.3938m
attr unit m
par Aloha.host[224] y 165.27m
attr unit m
par Aloha.host[224] txrate 1000Bps
attr unit Bps
par Aloha.host[225] typename "\"Host\""
par Aloha.host[225] arrrate 0.7
par Aloha.host[225] packet_size 1B
attr unit B
par Aloha.host[225] x 92.8534m
attr unit m
par Aloha.host[225] y 180.597m
attr unit m
par Aloha.host[225] txrate 1000Bps
attr unit Bps
par Aloha.host[226] typename "\"Host\""
par Aloha.host[226] arrrate 0.7
par Aloha.host[226] packet_size 1B
attr unit B
par Aloha.host[226] x 63.9181m
attr unit m
par Aloha.host[226] y 125.566m
attr unit m
par Aloha.host[226] txrate 1000Bps
attr unit Bps
par Aloha.host[227] typename "\"Host\""
par Aloha.host[227] arrrate 0.7
par Aloha.host[227] packet_size 1B
attr unit B
par Aloha.host[227] x 181.819m
attr unit m
par Aloha.host[227] y 158.858m
attr unit m
par Aloha.host[227] txrate 1000Bps
attr unit Bps
par Aloha.host[228] typename "\"Host\""
par Aloha.host[228] arrrate 0.7
par Aloha.host[228] packet_size 1B
attr unit B
par Aloha.host[228] x 157.125m
attr unit m
par Aloha.host[228] y 139.632m
attr unit m
par Aloha.host[228] txrate 1000Bps
attr unit Bps
par Aloha.host[229] typename "\"Host\""
par Aloha.host[229] arrrate 0.7
par Aloha.host[229] packet_size 1B
attr unit B
par Aloha.host[229] x 141.15m
attr unit m
par Aloha.host[229] y 83.1287m
attr unit m
par Aloha.host[229] txrate 1000Bps
attr unit Bps
par Aloha.host[230] typename "\"Host\""
par Aloha.host[230] arrrate 0.7
par Aloha.host[230] packet_size 1B
attr unit B
par Aloha.host[230] x 27.9807m
attr unit m
par Aloha.host[230] y 48.8192m
attr unit m
par Aloha.host[230] txrate 1000Bps
attr unit Bps
par Aloha.host[231] typename "\"Host\""
par Aloha.host[231] arrrate 0.7
par Aloha.host[231] packet_size 1B
attr unit B
par Aloha.host[231] x 122.364m
attr unit m
par Aloha.host[231] y 109.476m
attr unit m
par Aloha.host[231] txrate 1000Bps
attr unit Bps
par Aloha.host[232] typename "\"Host\""
par Aloha.host[232] arrrate 0.7
par Aloha.host[232] packet_size 1B
attr unit B
par Aloha.host[232] x 170.299m
attr unit m
par Aloha.host[232] y 184.972m
attr unit m
par Aloha.host[232] txrate 1000Bps
attr unit Bps
par Aloha.host[233] typename "\"Host\""
par Aloha.host[233] arrrate 0.7
par Aloha.host[233] packet_size 1B
attr unit B
par Aloha.host[233] x 184.754m
attr unit m
par Aloha.host[233] y 117.921m
attr unit m
par Aloha.host[233] txrate 1000Bps
attr unit Bps
par Aloha.host[234] typename "\"Host\""
par Aloha.host[234] arrrate 0.7
par Aloha.host[234] packet_size 1B
attr unit B
par Aloha.host[234] x 132.442m
attr unit m
par Aloha.host[234] y 91.3893m
attr unit m
par Aloha.host[234] txrate 1000Bps
attr unit Bps
par Aloha.host[235] typename "\"Host\""
par Aloha.host[235] arrrate 0.7
par Aloha.host[235] packet_size 1B
attr unit B
par Aloha.host[235] x 51.7959m
attr unit m
par Aloha.host[235] y 113.578m
attr unit m
par Aloha.host[235] txrate 1000Bps
attr unit Bps
par Aloha.host[236] typename "\"Host\""
par Aloha.host[236] arrrate 0.7
par Aloha.host[236] packet_size 1B
attr unit B
par Aloha.host[236] x 55.3599m
attr unit m
par Aloha.host[236] y 86.0545m
attr unit m
par Aloha.host[236] txrate 1000Bps
attr unit Bps
par Aloha.host[237] typename "\"Host\""
par Aloha.host[237] arrrate 0.7
par Aloha.host[237] packet_size 1B
attr unit B
par Aloha.host[237] x 127.096m
attr unit m
par Aloha.host[237] y 52.2686m
attr unit m
par Aloha.host[237] txrate 1000Bps
attr unit Bps
par Aloha.host[238] typename "\"Host\""
par Aloha.host[238] arrrate 0.7
par Aloha.host[238] packet_size 1B
attr unit B
par Aloha.host[238] x 144.881m
attr unit m
par Aloha.host[238] y 16.0388m
attr unit m
par Aloha.host[238] txrate 1000Bps
attr unit Bps
par Aloha.host[239] typename "\"Host\""
par Aloha.host[239] arrrate 0.7
par Aloha.host[239] packet_size 1B
attr unit B
par Aloha.host[239] x 61.1174m
attr unit m
par Aloha.host[239] y 186.781m
attr unit m
par Aloha.host[239] txrate 1000Bps
attr unit Bps
par Aloha.host[240] typename "\"Host\""
par Aloha.host[240] arrrate 0.7
par Aloha.host[240] packet_size 1B
attr unit B
par Aloha.host[240] x 135.593m
attr unit m
par Aloha.host[240] y 45.9095m
attr unit m
par Aloha.host[240] txrate 1000Bps
attr unit Bps
par Aloha.host[241] typename "\"Host\""
par Aloha.host[241] arrrate 0.7
par Aloha.host[241] packet_size 1B
attr unit B
par Aloha.host[241] x 101.299m
attr unit m
par Aloha.host[241] y 2.69495m
attr unit m
par Aloha.host[241] txrate 1000Bps
attr unit Bps
par Aloha.host[242] typename "\"Host\""
par Aloha.host[242] arrrate 0.7
par Aloha.host[242] packet_size 1B
attr unit B
par Aloha.host[242] x 165.877m
attr unit m
par Aloha.host[242] y 84.2026m
attr unit m
par Aloha.host[242] txrate 1000Bps
attr unit Bps
par Aloha.host[243] typename "\"Host\""
par Aloha.host[243] arrrate 0.7
par Aloha.host[243] packet_size 1B
attr unit B
par Aloha.host[243] x 136.66m
attr unit m
par Aloha.host[243] y 13.1728m
attr unit m
par Aloha.host[243] txrate 1000Bps
attr unit Bps
par Aloha.host[244] typename "\"Host\""
par Aloha.host[244] arrrate 0.7
par Aloha.host[244] packet_size 1B
attr unit B
par Aloha.host[244] x 182.02m
attr unit m
par Aloha.host[244] y 104.514m
attr unit m
par Aloha.host[244] txrate 1000Bps
attr unit Bps
par Aloha.host[245] typename "\"Host\""
par Aloha.host[245] arrrate 0.7
par Aloha.host[245] packet_size 1B
attr unit B
par Aloha.host[245] x 23.9879m
attr unit m
par Aloha.host[245] y 77.2499m
attr unit m
par Aloha.host[245] txrate 1000Bps
attr unit Bps
par Aloha.host[246] typename "\"Host\""
par Aloha.host[246] arrrate 0.7
par Aloha.host[246] packet_size 1B
attr unit B
par Aloha.host[246] x 167.947m
attr unit m
par Aloha.host[246] y 46.8549m
attr unit m
par Aloha.host[246] txrate 1000Bps
attr unit Bps
par Aloha.host[247] typename "\"Host\""
par Aloha.host[247] arrrate 0.7
par Aloha.host[247] packet_size 1B
attr unit B
par Aloha.host[247] x 189.654m
attr unit m
par Aloha.host[247] y 112.726m
attr unit m
par Aloha.host[247] txrate 1000Bps
attr unit Bps
par Aloha.host[248] typename "\"Host\""
par Aloha.host[248] arrrate 0.7
par Aloha.host[248] packet_size 1B
attr unit B
par Aloha.host[248] x 114.724m
attr unit m
par Aloha.host[248] y 42.9159m
attr unit m
par Aloha.host[248] txrate 1000Bps
attr unit Bps
par Aloha.host[249] typename "\"Host\""
par Aloha.host[249] arrrate 0.7
par Aloha.host[249] packet_size 1B
attr unit B
par Aloha.host[249] x 0.829006m
attr unit m
par Aloha.host[249] y 31.4218m
attr unit m
par Aloha.host[249] txrate 1000Bps
attr unit Bps
par Aloha.host[250] typename "\"Host\""
par Aloha.host[250] arrrate 0.7
par Aloha.host[250] packet_size 1B
attr unit B
par Aloha.host[250] x 6.70246m
attr unit m
par Aloha.host[250] y 126.966m
attr unit m
par Aloha.host[250] txrate 1000Bps
attr unit Bps
par Aloha.host[251] typename "\"Host\""
par Aloha.host[251] arrrate 0.7
par Aloha.host[251] packet_size 1B
attr unit B
par Aloha.host[251] x 82.4932m
attr unit m
par Aloha.host[251] y 60.4077m
attr unit m
par Aloha.host[251] txrate 1000Bps
attr unit Bps
par Aloha.host[252] typename "\"Host\""
par Aloha.host[252] arrrate 0.7
par Aloha.host[252] packet_size 1B
attr unit B
par Aloha.host[252] x 91.6554m
attr unit m
par Aloha.host[252] y 179.009m
attr unit m
par Aloha.host[252] txrate 1000Bps
attr unit Bps
par Aloha.host[253] typename "\"Host\""
par Aloha.host[253] arrrate 0.7
par Aloha.host[253] packet_size 1B
attr unit B
par Aloha.host[253] x 95.5304m
attr unit m
par Aloha.host[253] y 130.184m
attr unit m
par Aloha.host[253] txrate 1000Bps
attr unit Bps
par Aloha.host[254] typename "\"Host\""
par Aloha.host[254] arrrate 0.7
par Aloha.host[254] packet_size 1B
attr unit B
par Aloha.host[254] x 136.284m
attr unit m
par Aloha.host[254] y 179.77m
attr unit m
par Aloha.host[254] txrate 1000Bps
attr unit Bps
par Aloha.host[255] typename "\"Host\""
par Aloha.host[255] arrrate 0.7
par Aloha.host[255] packet_size 1B
attr unit B
par Aloha.host[255] x 150.978m
attr unit m
par Aloha.host[255] y 46.5919m
attr unit m
par Aloha.host[255] txrate 1000Bps
attr unit Bps
par Aloha.host[256] typename "\"Host\""
par Aloha.host[256] arrrate 0.7
par Aloha.host[256] packet_size 1B
attr unit B
par Aloha.host[256] x 164.157m
attr unit m
par Aloha.host[256] y 51.8084m
attr unit m
par Aloha.host[256] txrate 1000Bps
attr unit Bps
par Aloha.host[257] typename "\"Host\""
par Aloha.host[257] arrrate 0.7
par Aloha.host[257] packet_size 1B
attr unit B
par Aloha.host[257] x 69.2618m
attr unit m
par Aloha.host[257] y 153.481m
attr unit m
par Aloha.host[257] txrate 1000Bps
attr unit Bps
par Aloha.host[258] typename "\"Host\""
par Aloha.host[258] arrrate 0.7
par Aloha.host[258] packet_size 1B
attr unit B
par Aloha.host[258] x 122.99m
attr unit m
par Aloha.host[258] y 52.6337m
attr unit m
par Aloha.host[258] txrate 1000Bps
attr unit Bps
par Aloha.host[259] typename "\"Host\""
par Aloha.host[259] arrrate 0.7
par Aloha.host[259] packet_size 1B
attr unit B
par Aloha.host[259] x 78.5735m
attr unit m
par Aloha.host[259] y 127.352m
attr unit m
par Aloha.host[259] txrate 1000Bps
attr unit Bps
par Aloha.host[260] typename "\"Host\""
par Aloha.host[260] arrrate 0.7
par Aloha.host[260] packet_size 1B
attr unit B
par Aloha.host[260] x 145.069m
attr unit m
par Aloha.host[260] y 127.766m
attr unit m
par Aloha.host[260] txrate 1000Bps
attr unit Bps
par Aloha.host[261] typename "\"Host\""
par Aloha.host[261] arrrate 0.7
par Aloha.host[261] packet_size 1B
attr unit B
par Aloha.host[261] x 112.695m
attr unit m
par Aloha.host[261] y 101.012m
attr unit m
par Aloha.host[261] txrate 1000Bps
attr unit Bps
par Aloha.host[262] typename "\"Host\""
par Aloha.host[262] arrrate 0.7
par Aloha.host[262] packet_size 1B
attr unit B
par Aloha.host[262] x 118.956m
attr unit m
par Aloha.host[262] y 147.516m
attr unit m
par Aloha.host[262] txrate 1000Bps
attr unit Bps
par Aloha.host[263] typename "\"Host\""
par Aloha.host[263] arrrate 0.7
par Aloha.host[263] packet_size 1B
attr unit B
par Aloha.host[263] x 77.5473m
attr unit m
par Aloha.host[263] y 167.653m
attr unit m
par Aloha.host[263] txrate 1000Bps
attr unit Bps
par Aloha.host[264] typename "\"Host\""
par Aloha.host[264] arrrate 0.7
par Aloha.host[264] packet_size 1B
attr unit B
par Aloha.host[264] x 126.892m
attr unit m
par Aloha.host[264] y 159.53m
attr unit m
par Aloha.host[264] txrate 1000Bps
attr unit Bps
par Aloha.host[265] typename "\"Host\""
par Aloha.host[265] arrrate 0.7
par Aloha.host[265] packet_size 1B
attr unit B
par Aloha.host[265] x 173.558m
attr unit m
par Aloha.host[265] y 112.54m
attr unit m
par Aloha.host[265] txrate 1000Bps
attr unit Bps
par Aloha.host[266] typename "\"Host\""
par Aloha.host[266] arrrate 0.7
par Aloha.host[266] packet_size 1B
attr unit B
par Aloha.host[266] x 130.339m
attr unit m
par Aloha.host[266] y 189.085m
attr unit m
par Aloha.host[266] txrate 1000Bps
attr unit Bps
par Aloha.host[267] typename "\"Host\""
par Aloha.host[267] arrrate 0.7
par Aloha.host[267] packet_size 1B
attr unit B
par Aloha.host[267] x 25.7188m
attr unit m
par Aloha.host[267] y 33.3721m
attr unit m
par Aloha.host[267] txrate 1000Bps
attr unit Bps
par Aloha.host[268] typename "\"Host\""
par Aloha.host[268] arrrate 0.7
par Aloha.host[268] packet_size 1B
attr unit B
par Aloha.host[268] x 17.7477m
attr unit m
par Aloha.host[268] y 54.7615m
attr unit m
par Aloha.host[268] txrate 1000Bps
attr unit Bps
par Aloha.host[269] typename "\"Host\""
par Aloha.host[269] arrrate 0.7
par Aloha.host[269] packet_size 1B
attr unit B
par Aloha.host[269] x 135.493m
attr unit m
par Aloha.host[269] y 13.594m
attr unit m
par Aloha.host[269] txrate 1000Bps
attr unit Bps
par Aloha.host[270] typename "\"Host\""
par Aloha.host[270] arrrate 0.7
par Aloha.host[270] packet_size 1B
attr unit B
par Aloha.host[270] x 71.1188m
attr unit m
par Aloha.host[270] y 136.105m
attr unit m
par Aloha.host[270] txrate 1000Bps
attr unit Bps
par Aloha.host[271] typename "\"Host\""
par Aloha.host[271] arrrate 0.7
par Aloha.host[271] packet_size 1B
attr unit B
par Aloha.host[271] x 62.9453m
attr unit m
par Aloha.host[271] y 32.3392m
attr unit m
par Aloha.host[271] txrate 1000Bps
attr unit Bps
par Aloha.host[272] typename "\"Host\""
par Aloha.host[272] arrrate 0.7
par Aloha.host[272] packet_size 1B
attr unit B
par Aloha.host[272] x 178.011m
attr unit m
par Aloha.host[272] y 69.7349m
attr unit m
par Aloha.host[272] txrate 1000Bps
attr unit Bps
par Aloha.host[273] typename "\"Host\""
par Aloha.host[273] arrrate 0.7
par Aloha.host[273] packet_size 1B
attr unit B
par Aloha.host[273] x 172.783m
attr unit m
par Aloha.host[273] y 33.0409m
attr unit m
par Aloha.host[273] txrate 1000Bps
attr unit Bps
par Aloha.host[274] typename "\"Host\""
par Aloha.host[274] arrrate 0.7
par Aloha.host[274] packet_size 1B
attr unit B
par Aloha.host[274] x 161.132m
attr unit m
par Aloha.host[274] y 71.0109m
attr unit m
par Aloha.host[274] txrate 1000Bps
attr unit Bps
par Aloha.host[275] typename "\"Host\""
par Aloha.host[275] arrrate 0.7
par Aloha.host[275] packet_size 1B
attr unit B
par Aloha.host[275] x 71.4647m
attr unit m
par Aloha.host[275] y 68.3748m
attr unit m
par Aloha.host[275] txrate 1000Bps
attr unit Bps
par Aloha.host[276] typename "\"Host\""
par Aloha.host[276] arrrate 0.7
par Aloha.host[276] packet_size 1B
attr unit B
par Aloha.host[276] x 128.156m
attr unit m
par Aloha.host[276] y 52.3799m
attr unit m
par Aloha.host[276] txrate 1000Bps
attr unit Bps
par Aloha.host[277] typename "\"Host\""
par Aloha.host[277] arrrate 0.7
par Aloha.host[277] packet_size 1B
attr unit B
par Aloha.host[277] x 119.767m
attr unit m
par Aloha.host[277] y 191.826m
attr unit m
par Aloha.host[277] txrate 1000Bps
attr unit Bps
par Aloha.host[278] typename "\"Host\""
par Aloha.host[278] arrrate 0.7
par Aloha.host[278] packet_size 1B
attr unit B
par Aloha.host[278] x 47.1085m
attr unit m
par Aloha.host[278] y 169.9m
attr unit m
par Aloha.host[278] txrate 1000Bps
attr unit Bps
par Aloha.host[279] typename "\"Host\""
par Aloha.host[279] arrrate 0.7
par Aloha.host[279] packet_size 1B
attr unit B
par Aloha.host[279] x 117.939m
attr unit m
par Aloha.host[279] y 114.098m
attr unit m
par Aloha.host[279] txrate 1000Bps
attr unit Bps
par Aloha.host[280] typename "\"Host\""
par Aloha.host[280] arrrate 0.7
par Aloha.host[280] packet_size 1B
attr unit B
par Aloha.host[280] x 199.401m
attr unit m
par Aloha.host[280] y 2.10038m
attr unit m
par Aloha.host[280] txrate 1000Bps
attr unit Bps
par Aloha.host[281] typename "\"Host\""
par Aloha.host[281] arrrate 0.7
par Aloha.host[281] packet_size 1B
attr unit B
par Aloha.host[281] x 10.4949m
attr unit m
par Aloha.host[281] y 111.05m
attr unit m
par Aloha.host[281] txrate 1000Bps
attr unit Bps
par Aloha.host[282] typename "\"Host\""
par Aloha.host[282] arrrate 0.7
par Aloha.host[282] packet_size 1B
attr unit B
par Aloha.host[282] x 47.5041m
attr unit m
par Aloha.host[282] y 197.97m
attr unit m
par Aloha.host[282] txrate 1000Bps
attr unit Bps
par Aloha.host[283] typename "\"Host\""
par Aloha.host[283] arrrate 0.7
par Aloha.host[283] packet_size 1B
attr unit B
par Aloha.host[283] x 66.1974m
attr unit m
par Aloha.host[283] y 170.942m
attr unit m
par Aloha.host[283] txrate 1000Bps
attr unit Bps
par Aloha.host[284] typename "\"Host\""
par Aloha.host[284] arrrate 0.7
par Aloha.host[284] packet_size 1B
attr unit B
par Aloha.host[284] x 160.187m
attr unit m
par Aloha.host[284] y 58.2546m
attr unit m
par Aloha.host[284] txrate 1000Bps
attr unit Bps
par Aloha.host[285] typename "\"Host\""
par Aloha.host[285] arrrate 0.7
par Aloha.host[285] packet_size 1B
attr unit B
par Aloha.host[285] x 88.7359m
attr unit m
par Aloha.host[285] y 96.7615m
attr unit m
par Aloha.host[285] txrate 1000Bps
attr unit Bps
par Aloha.host[286] typename "\"Host\""
par Aloha.host[286] arrrate 0.7
par Aloha.host[286] packet_size 1B
attr unit B
par Aloha.host[286] x 12.5447m
attr unit m
par Aloha.host[286] y 82.8673m
attr unit m
par Aloha.host[286] txrate 1000Bps
attr unit Bps
par Aloha.host[287] typename "\"Host\""
par Aloha.host[287] arrrate 0.7
par Aloha.host[287] packet_size 1B
attr unit B
par Aloha.host[287] x 63.6514m
attr unit m
par Aloha.host[287] y 87.5264m
attr unit m
par Aloha.host[287] txrate 1000Bps
attr unit Bps
par Aloha.host[288] typename "\"Host\""
par Aloha.host[288] arrrate 0.7
par Aloha.host[288] packet_size 1B
attr unit B
par Aloha.host[288] x 166.104m
attr unit m
par Aloha.host[288] y 9.16383m
attr unit m
par Aloha.host[288] txrate 1000Bps
attr unit Bps
par Aloha.host[289] typename "\"Host\""
par Aloha.host[289] arrrate 0.7
par Aloha.host[289] packet_size 1B
attr unit B
par Aloha.host[289] x 147.689m
attr unit m
par Aloha.host[289] y 79.0144m
attr unit m
par Aloha.host[289] txrate 1000Bps
attr unit Bps
par Aloha.host[290] typename "\"Host\""
par Aloha.host[290] arrrate 0.7
par Aloha.host[290] packet_size 1B
attr unit B
par Aloha.host[290] x 55.767m
attr unit m
par Aloha.host[290] y 88.7178m
attr unit m
par Aloha.host[290] txrate 1000Bps
attr unit Bps
par Aloha.host[291] typename "\"Host\""
par Aloha.host[291] arrrate 0.7
par Aloha.host[291] packet_size 1B
attr unit B
par Aloha.host[291] x 145.72m
attr unit m
par Aloha.host[291] y 31.3813m
attr unit m
par Aloha.host[291] txrate 1000Bps
attr unit Bps
par Aloha.host[292] typename "\"Host\""
par Aloha.host[292] arrrate 0.7
par Aloha.host[292] packet_size 1B
attr unit B
par Aloha.host[292] x 63.9387m
attr unit m
par Aloha.host[292] y 35.8085m
attr unit m
par Aloha.host[292] txrate 1000Bps
attr unit Bps
par Aloha.host[293] typename "\"Host\""
par Aloha.host[293] arrrate 0.7
par Aloha.host[293] packet_size 1B
attr unit B
par Aloha.host[293] x 30.5083m
attr unit m
par Aloha.host[293] y 171.209m
attr unit m
par Aloha.host[293] txrate 1000Bps
attr unit Bps
par Aloha.host[294] typename "\"Host\""
par Aloha.host[294] arrrate 0.7
par Aloha.host[294] packet_size 1B
attr unit B
par Aloha.host[294] x 196.976m
attr unit m
par Aloha.host[294] y 49.0907m
attr unit m
par Aloha.host[294] txrate 1000Bps
attr unit Bps
par Aloha.host[295] typename "\"Host\""
par Aloha.host[295] arrrate 0.7
par Aloha.host[295] packet_size 1B
attr unit B
par Aloha.host[295] x 52.326m
attr unit m
par Aloha.host[295] y 107.719m
attr unit m
par Aloha.host[295] txrate 1000Bps
attr unit Bps
par Aloha.host[296] typename "\"Host\""
par Aloha.host[296] arrrate 0.7
par Aloha.host[296] packet_size 1B
attr unit B
par Aloha.host[296] x 121.725m
attr unit m
par Aloha.host[296] y 47.2957m
attr unit m
par Aloha.host[296] txrate 1000Bps
attr unit Bps
par Aloha.host[297] typename "\"Host\""
par Aloha.host[297] arrrate 0.7
par Aloha.host[297] packet_size 1B
attr unit B
par Aloha.host[297] x 183.517m
attr unit m
par Aloha.host[297] y 10.0857m
attr unit m
par Aloha.host[297] txrate 1000Bps
attr unit Bps
par Aloha.host[298] typename "\"Host\""
par Aloha.host[298] arrrate 0.7
par Aloha.host[298] packet_size 1B
attr unit B
par Aloha.host[298] x 128.598m
attr unit m
par Aloha.host[298] y 192.912m
attr unit m
par Aloha.host[298] txrate 1000Bps
attr unit Bps
par Aloha.host[299] typename "\"Host\""
par Aloha.host[299] arrrate 0.7
par Aloha.host[299] packet_size 1B
attr unit B
par Aloha.host[299] x 85.3559m
attr unit m
par Aloha.host[299] y 182.143m
attr unit m
par Aloha.host[299] txrate 1000Bps
attr unit Bps
par Aloha.host[300] typename "\"Host\""
par Aloha.host[300] arrrate 0.7
par Aloha.host[300] packet_size 1B
attr unit B
par Aloha.host[300] x 79.4432m
attr unit m
par Aloha.host[300] y 71.1774m
attr unit m
par Aloha.host[300] txrate 1000Bps
attr unit Bps
par Aloha.host[301] typename "\"Host\""
par Aloha.host[301] arrrate 0.7
par Aloha.host[301] packet_size 1B
attr unit B
par Aloha.host[301] x 9.78132m
attr unit m
par Aloha.host[301] y 22.8769m
attr unit m
par Aloha.host[301] txrate 1000Bps
attr unit Bps
par Aloha.host[302] typename "\"Host\""
par Aloha.host[302] arrrate 0.7
par Aloha.host[302] packet_size 1B
attr unit B
par Aloha.host[302] x 16.2493m
attr unit m
par Aloha.host[302] y 83.9097m
attr unit m
par Aloha.host[302] txrate 1000Bps
attr unit Bps
par Aloha.host[303] typename "\"Host\""
par Aloha.host[303] arrrate 0.7
par Aloha.host[303] packet_size 1B
attr unit B
par Aloha.host[303] x 90.1361m
attr unit m
par Aloha.host[303] y 36.5686m
attr unit m
par Aloha.host[303] txrate 1000Bps
attr unit Bps
par Aloha.host[304] typename "\"Host\""
par Aloha.host[304] arrrate 0.7
par Aloha.host[304] packet_size 1B
attr unit B
par Aloha.host[304] x 184.464m
attr unit m
par Aloha.host[304] y 128.473m
attr unit m
par Aloha.host[304] txrate 1000Bps
attr unit Bps
par Aloha.host[305] typename "\"Host\""
par Aloha.host[305] arrrate 0.7
par Aloha.host[305] packet_size 1B
attr unit B
par Aloha.host[305] x 46.6739m
attr unit m
par Aloha.host[305] y 154.23m
attr unit m
par Aloha.host[305] txrate 1000Bps
attr unit Bps
par Aloha.host[306] typename "\"Host\""
par Aloha.host[306] arrrate 0.7
par Aloha.host[306] packet_size 1B
attr unit B
par Aloha.host[306] x 173.772m
attr unit m
par Aloha.host[306] y 152.254m
attr unit m
par Aloha.host[306] txrate 1000Bps
attr unit Bps
par Aloha.host[307] typename "\"Host\""
par Aloha.host[307] arrrate 0.7
par Aloha.host[307] packet_size 1B
attr unit B
par Aloha.host[307] x 161.245m
attr unit m
par Aloha.host[307] y 13.0033m
attr unit m
par Aloha.host[307] txrate 1000Bps
attr unit Bps
par Aloha.host[308] typename "\"Host\""
par Aloha.host[308] arrrate 0.7
par Aloha.host[308] packet_size 1B
attr unit B
par Aloha.host[308] x 34.8308m
attr unit m
par Aloha.host[308] y 124.454m
attr unit m
par Aloha.host[308] txrate 1000Bps
attr unit Bps
par Aloha.host[309] typename "\"Host\""
par Aloha.host[309] arrrate 0.7
par Aloha.host[309] packet_size 1B
attr unit B
par Aloha.host[309] x 62.4755m
attr unit m
par Aloha.host[309] y 95.1203m
attr unit m
par Aloha.host[309] txrate 1000Bps
attr unit Bps
par Aloha.host[310] typename "\"Host\""
par Aloha.host[310] arrrate 0.7
par Aloha.host[310] packet_size 1B
attr unit B
par Aloha.host[310] x 85.6795m
attr unit m
par Aloha.host[310] y 121.048m
attr unit m
par Aloha.host[310] txrate 1000Bps
attr unit Bps
par Aloha.host[311] typename "\"Host\""
par Aloha.host[311] arrrate 0.7
par Aloha.host[311] packet_size 1B
attr unit B
par Aloha.host[311] x 171.855m
attr unit m
par Aloha.host[311] y 86.1067m
attr unit m
par Aloha.host[311] txrate 1000Bps
attr unit Bps
par Aloha.host[312] typename "\"Host\""
par Aloha.host[312] arrrate 0.7
par Aloha.host[312] packet_size 1B
attr unit B
par Aloha.host[312] x 126.831m
attr unit m
par Aloha.host[312] y 179.907m
attr unit m
par Aloha.host[312] txrate 1000Bps
attr unit Bps
par Aloha.host[313] typename "\"Host\""
par Aloha.host[313] arrrate 0.7
par Aloha.host[313] packet_size 1B
attr unit B
par Aloha.host[313] x 164.959m
attr unit m
par Aloha.host[313] y 34.5672m
attr unit m
par Aloha.host[313] txrate 1000Bps
attr unit Bps
par Aloha.host[314] typename "\"Host\""
par Aloha.host[314] arrrate 0.7
par Aloha.host[314] packet_size 1B
attr unit B
par Aloha.host[314] x 99.4104m
attr unit m
par Aloha.host[314] y 51.5809m
attr unit m
par Aloha.host[314] txrate 1000Bps
attr unit Bps
[...]
par Aloha.host[922] packet_size 1B
attr unit B
par Aloha.host[922] x 104.423m
attr unit m
par Aloha.host[922] y 193.611m
attr unit m
par Aloha.host[922] txrate 1000Bps
attr unit Bps
par Aloha.host[923] typename "\"Host\""
par Aloha.host[923] arrrate 0.7
par Aloha.host[923] packet_size 1B
attr unit B
par Aloha.host[923] x 105.018m
attr unit m
par Aloha.host[923] y 32.2972m
attr unit m
par Aloha.host[923] txrate 1000Bps
attr unit Bps
par Aloha.host[924] typename "\"Host\""
par Aloha.host[924] arrrate 0.7
par Aloha.host[924] packet_size 1B
attr unit B
par Aloha.host[924] x 17.6911m
attr unit m
par Aloha.host[924] y 45.1187m
attr unit m
par Aloha.host[924] txrate 1000Bps
attr unit Bps
par Aloha.host[925] typename "\"Host\""
par Aloha.host[925] arrrate 0.7
par Aloha.host[925] packet_size 1B
attr unit B
par Aloha.host[925] x 90.8245m
attr unit m
par Aloha.host[925] y 70.9791m
attr unit m
par Aloha.host[925] txrate 1000Bps
attr unit Bps
par Aloha.host[926] typename "\"Host\""
par Aloha.host[926] arrrate 0.7
par Aloha.host[926] packet_size 1B
attr unit B
par Aloha.host[926] x 198.26m
attr unit m
par Aloha.host[926] y 166.329m
attr unit m
par Aloha.host[926] txrate 1000Bps
attr unit Bps
par Aloha.host[927] typename "\"Host\""
par Aloha.host[927] arrrate 0.7
par Aloha.host[927] packet_size 1B
attr unit B
par Aloha.host[927] x 26.5766m
attr unit m
par Aloha.host[927] y 50.0593m
attr unit m
par Aloha.host[927] txrate 1000Bps
attr unit Bps
par Aloha.host[928] typename "\"Host\""
par Aloha.host[928] arrrate 0.7
par Aloha.host[928] packet_size 1B
attr unit B
par Aloha.host[928] x 171.46m
attr unit m
par Aloha.host[928] y 88.0118m
attr unit m
par Aloha.host[928] txrate 1000Bps
attr unit Bps
par Aloha.host[929] typename "\"Host\""
par Aloha.host[929] arrrate 0.7
par Aloha.host[929] packet_size 1B
attr unit B
par Aloha.host[929] x 176.412m
attr unit m
par Aloha.host[929] y 108.749m
attr unit m
par Aloha.host[929] txrate 1000Bps
attr unit Bps
par Aloha.host[930] typename "\"Host\""
par Aloha.host[930] arrrate 0.7
par Aloha.host[930] packet_size 1B
attr unit B
par Aloha.host[930] x 17.1245m
attr unit m
par Aloha.host[930] y 3.20931m
attr unit m
par Aloha.host[930] txrate 1000Bps
attr unit Bps
par Aloha.host[931] typename "\"Host\""
par Aloha.host[931] arrrate 0.7
par Aloha.host[931] packet_size 1B
attr unit B
par Aloha.host[931] x 143.305m
attr unit m
par Aloha.host[931] y 93.9986m
attr unit m
par Aloha.host[931] txrate 1000Bps
attr unit Bps
par Aloha.host[932] typename "\"Host\""
par Aloha.host[932] arrrate 0.7
par Aloha.host[932] packet_size 1B
attr unit B
par Aloha.host[932] x 2.20823m
attr unit m
par Aloha.host[932] y 84.1548m
attr unit m
par Aloha.host[932] txrate 1000Bps
attr unit Bps
par Aloha.host[933] typename "\"Host\""
par Aloha.host[933] arrrate 0.7
par Aloha.host[933] packet_size 1B
attr unit B
par Aloha.host[933] x 73.2766m
attr unit m
par Aloha.host[933] y 16.2178m
attr unit m
par Aloha.host[933] txrate 1000Bps
attr unit Bps
par Aloha.host[934] typename "\"Host\""
par Aloha.host[934] arrrate 0.7
par Aloha.host[934] packet_size 1B
attr unit B
par Aloha.host[934] x 174.758m
attr unit m
par Aloha.host[934] y 152.207m
attr unit m
par Aloha.host[934] txrate 1000Bps
attr unit Bps
par Aloha.host[935] typename "\"Host\""
par Aloha.host[935] arrrate 0.7
par Aloha.host[935] packet_size 1B
attr unit B
par Aloha.host[935] x 176.924m
attr unit m
par Aloha.host[935] y 127.796m
attr unit m
par Aloha.host[935] txrate 1000Bps
attr unit Bps
par Aloha.host[936] typename "\"Host\""
par Aloha.host[936] arrrate 0.7
par Aloha.host[936] packet_size 1B
attr unit B
par Aloha.host[936] x 194.735m
attr unit m
par Aloha.host[936] y 110.583m
attr unit m
par Aloha.host[936] txrate 1000Bps
attr unit Bps
par Aloha.host[937] typename "\"Host\""
par Aloha.host[937] arrrate 0.7
par Aloha.host[937] packet_size 1B
attr unit B
par Aloha.host[937] x 91.4801m
attr unit m
par Aloha.host[937] y 45.3132m
attr unit m
par Aloha.host[937] txrate 1000Bps
attr unit Bps
par Aloha.host[938] typename "\"Host\""
par Aloha.host[938] arrrate 0.7
par Aloha.host[938] packet_size 1B
attr unit B
par Aloha.host[938] x 56.337m
attr unit m
par Aloha.host[938] y 109.217m
attr unit m
par Aloha.host[938] txrate 1000Bps
attr unit Bps
par Aloha.host[939] typename "\"Host\""
par Aloha.host[939] arrrate 0.7
par Aloha.host[939] packet_size 1B
attr unit B
par Aloha.host[939] x 101.714m
attr unit m
par Aloha.host[939] y 134.047m
attr unit m
par Aloha.host[939] txrate 1000Bps
attr unit Bps
par Aloha.host[940] typename "\"Host\""
par Aloha.host[940] arrrate 0.7
par Aloha.host[940] packet_size 1B
attr unit B
par Aloha.host[940] x 86.6827m
attr unit m
par Aloha.host[940] y 118.482m
attr unit m
par Aloha.host[940] txrate 1000Bps
attr unit Bps
par Aloha.host[941] typename "\"Host\""
par Aloha.host[941] arrrate 0.7
par Aloha.host[941] packet_size 1B
attr unit B
par Aloha.host[941] x 132.907m
attr unit m
par Aloha.host[941] y 38.6834m
attr unit m
par Aloha.host[941] txrate 1000Bps
attr unit Bps
par Aloha.host[942] typename "\"Host\""
par Aloha.host[942] arrrate 0.7
par Aloha.host[942] packet_size 1B
attr unit B
par Aloha.host[942] x 187.306m
attr unit m
par Aloha.host[942] y 90.5767m
attr unit m
par Aloha.host[942] txrate 1000Bps
attr unit Bps
par Aloha.host[943] typename "\"Host\""
par Aloha.host[943] arrrate 0.7
par Aloha.host[943] packet_size 1B
attr unit B
par Aloha.host[943] x 89.7365m
attr unit m
par Aloha.host[943] y 77.9902m
attr unit m
par Aloha.host[943] txrate 1000Bps
attr unit Bps
par Aloha.host[944] typename "\"Host\""
par Aloha.host[944] arrrate 0.7
par Aloha.host[944] packet_size 1B
attr unit B
par Aloha.host[944] x 176.057m
attr unit m
par Aloha.host[944] y 103.607m
attr unit m
par Aloha.host[944] txrate 1000Bps
attr unit Bps
par Aloha.host[945] typename "\"Host\""
par Aloha.host[945] arrrate 0.7
par Aloha.host[945] packet_size 1B
attr unit B
par Aloha.host[945] x 162.479m
attr unit m
par Aloha.host[945] y 155.821m
attr unit m
par Aloha.host[945] txrate 1000Bps
attr unit Bps
par Aloha.host[946] typename "\"Host\""
par Aloha.host[946] arrrate 0.7
par Aloha.host[946] packet_size 1B
attr unit B
par Aloha.host[946] x 38.1956m
attr unit m
par Aloha.host[946] y 136.571m
attr unit m
par Aloha.host[946] txrate 1000Bps
attr unit Bps
par Aloha.host[947] typename "\"Host\""
par Aloha.host[947] arrrate 0.7
par Aloha.host[947] packet_size 1B
attr unit B
par Aloha.host[947] x 132.163m
attr unit m
par Aloha.host[947] y 69.9977m
attr unit m
par Aloha.host[947] txrate 1000Bps
attr unit Bps
par Aloha.host[948] typename "\"Host\""
par Aloha.host[948] arrrate 0.7
par Aloha.host[948] packet_size 1B
attr unit B
par Aloha.host[948] x 169.394m
attr unit m
par Aloha.host[948] y 15.5419m
attr unit m
par Aloha.host[948] txrate 1000Bps
attr unit Bps
par Aloha.host[949] typename "\"Host\""
par Aloha.host[949] arrrate 0.7
par Aloha.host[949] packet_size 1B
attr unit B
par Aloha.host[949] x 130.532m
attr unit m
par Aloha.host[949] y 70.8353m
attr unit m
par Aloha.host[949] txrate 1000Bps
attr unit Bps
par Aloha.host[950] typename "\"Host\""
par Aloha.host[950] arrrate 0.7
par Aloha.host[950] packet_size 1B
attr unit B
par Aloha.host[950] x 166.582m
attr unit m
par Aloha.host[950] y 114.174m
attr unit m
par Aloha.host[950] txrate 1000Bps
attr unit Bps
par Aloha.host[951] typename "\"Host\""
par Aloha.host[951] arrrate 0.7
par Aloha.host[951] packet_size 1B
attr unit B
par Aloha.host[951] x 91.7483m
attr unit m
par Aloha.host[951] y 130.626m
attr unit m
par Aloha.host[951] txrate 1000Bps
attr unit Bps
par Aloha.host[952] typename "\"Host\""
par Aloha.host[952] arrrate 0.7
par Aloha.host[952] packet_size 1B
attr unit B
par Aloha.host[952] x 94.8769m
attr unit m
par Aloha.host[952] y 104.553m
attr unit m
par Aloha.host[952] txrate 1000Bps
attr unit Bps
par Aloha.host[953] typename "\"Host\""
par Aloha.host[953] arrrate 0.7
par Aloha.host[953] packet_size 1B
attr unit B
par Aloha.host[953] x 152.017m
attr unit m
par Aloha.host[953] y 26.1786m
attr unit m
par Aloha.host[953] txrate 1000Bps
attr unit Bps
par Aloha.host[954] typename "\"Host\""
par Aloha.host[954] arrrate 0.7
par Aloha.host[954] packet_size 1B
attr unit B
par Aloha.host[954] x 121.575m
attr unit m
par Aloha.host[954] y 82.0455m
attr unit m
par Aloha.host[954] txrate 1000Bps
attr unit Bps
par Aloha.host[955] typename "\"Host\""
par Aloha.host[955] arrrate 0.7
par Aloha.host[955] packet_size 1B
attr unit B
par Aloha.host[955] x 173.435m
attr unit m
par Aloha.host[955] y 22.2052m
attr unit m
par Aloha.host[955] txrate 1000Bps
attr unit Bps
par Aloha.host[956] typename "\"Host\""
par Aloha.host[956] arrrate 0.7
par Aloha.host[956] packet_size 1B
attr unit B
par Aloha.host[956] x 87.6163m
attr unit m
par Aloha.host[956] y 116.129m
attr unit m
par Aloha.host[956] txrate 1000Bps
attr unit Bps
par Aloha.host[957] typename "\"Host\""
par Aloha.host[957] arrrate 0.7
par Aloha.host[957] packet_size 1B
attr unit B
par Aloha.host[957] x 167.948m
attr unit m
par Aloha.host[957] y 33.57m
attr unit m
par Aloha.host[957] txrate 1000Bps
attr unit Bps
par Aloha.host[958] typename "\"Host\""
par Aloha.host[958] arrrate 0.7
par Aloha.host[958] packet_size 1B
attr unit B
par Aloha.host[958] x 127.21m
attr unit m
par Aloha.host[958] y 13.814m
attr unit m
par Aloha.host[958] txrate 1000Bps
attr unit Bps
par Aloha.host[959] typename "\"Host\""
par Aloha.host[959] arrrate 0.7
par Aloha.host[959] packet_size 1B
attr unit B
par Aloha.host[959] x 60.7165m
attr unit m
par Aloha.host[959] y 172.636m
attr unit m
par Aloha.host[959] txrate 1000Bps
attr unit Bps
par Aloha.host[960] typename "\"Host\""
par Aloha.host[960] arrrate 0.7
par Aloha.host[960] packet_size 1B
attr unit B
par Aloha.host[960] x 143.316m
attr unit m
par Aloha.host[960] y 172.732m
attr unit m
par Aloha.host[960] txrate 1000Bps
attr unit Bps
par Aloha.host[961] typename "\"Host\""
par Aloha.host[961] arrrate 0.7
par Aloha.host[961] packet_size 1B
attr unit B
par Aloha.host[961] x 170.575m
attr unit m
par Aloha.host[961] y 76.9656m
attr unit m
par Aloha.host[961] txrate 1000Bps
attr unit Bps
par Aloha.host[962] typename "\"Host\""
par Aloha.host[962] arrrate 0.7
par Aloha.host[962] packet_size 1B
attr unit B
par Aloha.host[962] x 57.9692m
attr unit m
par Aloha.host[962] y 32.313m
attr unit m
par Aloha.host[962] txrate 1000Bps
attr unit Bps
par Aloha.host[963] typename "\"Host\""
par Aloha.host[963] arrrate 0.7
par Aloha.host[963] packet_size 1B
attr unit B
par Aloha.host[963] x 34.5113m
attr unit m
par Aloha.host[963] y 9.75748m
attr unit m
par Aloha.host[963] txrate 1000Bps
attr unit Bps
par Aloha.host[964] typename "\"Host\""
par Aloha.host[964] arrrate 0.7
par Aloha.host[964] packet_size 1B
attr unit B
par Aloha.host[964] x 118.301m
attr unit m
par Aloha.host[964] y 67.006m
attr unit m
par Aloha.host[964] txrate 1000Bps
attr unit Bps
par Aloha.host[965] typename "\"Host\""
par Aloha.host[965] arrrate 0.7
par Aloha.host[965] packet_size 1B
attr unit B
par Aloha.host[965] x 194.441m
attr unit m
par Aloha.host[965] y 176.374m
attr unit m
par Aloha.host[965] txrate 1000Bps
attr unit Bps
par Aloha.host[966] typename "\"Host\""
par Aloha.host[966] arrrate 0.7
par Aloha.host[966] packet_size 1B
attr unit B
par Aloha.host[966] x 85.7411m
attr unit m
par Aloha.host[966] y 177.108m
attr unit m
par Aloha.host[966] txrate 1000Bps
attr unit Bps
par Aloha.host[967] typename "\"Host\""
par Aloha.host[967] arrrate 0.7
par Aloha.host[967] packet_size 1B
attr unit B
par Aloha.host[967] x 16.279m
attr unit m
par Aloha.host[967] y 77.4958m
attr unit m
par Aloha.host[967] txrate 1000Bps
attr unit Bps
par Aloha.host[968] typename "\"Host\""
par Aloha.host[968] arrrate 0.7
par Aloha.host[968] packet_size 1B
attr unit B
par Aloha.host[968] x 35.0293m
attr unit m
par Aloha.host[968] y 114.639m
attr unit m
par Aloha.host[968] txrate 1000Bps
attr unit Bps
par Aloha.host[969] typename "\"Host\""
par Aloha.host[969] arrrate 0.7
par Aloha.host[969] packet_size 1B
attr unit B
par Aloha.host[969] x 148.232m
attr unit m
par Aloha.host[969] y 177.406m
attr unit m
par Aloha.host[969] txrate 1000Bps
attr unit Bps
par Aloha.host[970] typename "\"Host\""
par Aloha.host[970] arrrate 0.7
par Aloha.host[970] packet_size 1B
attr unit B
par Aloha.host[970] x 14.8108m
attr unit m
par Aloha.host[970] y 56.4724m
attr unit m
par Aloha.host[970] txrate 1000Bps
attr unit Bps
par Aloha.host[971] typename "\"Host\""
par Aloha.host[971] arrrate 0.7
par Aloha.host[971] packet_size 1B
attr unit B
par Aloha.host[971] x 81.4801m
attr unit m
par Aloha.host[971] y 72.9122m
attr unit m
par Aloha.host[971] txrate 1000Bps
attr unit Bps
par Aloha.host[972] typename "\"Host\""
par Aloha.host[972] arrrate 0.7
par Aloha.host[972] packet_size 1B
attr unit B
par Aloha.host[972] x 88.4936m
attr unit m
par Aloha.host[972] y 25.472m
attr unit m
par Aloha.host[972] txrate 1000Bps
attr unit Bps
par Aloha.host[973] typename "\"Host\""
par Aloha.host[973] arrrate 0.7
par Aloha.host[973] packet_size 1B
attr unit B
par Aloha.host[973] x 182.122m
attr unit m
par Aloha.host[973] y 100.805m
attr unit m
par Aloha.host[973] txrate 1000Bps
attr unit Bps
par Aloha.host[974] typename "\"Host\""
par Aloha.host[974] arrrate 0.7
par Aloha.host[974] packet_size 1B
attr unit B
par Aloha.host[974] x 11.058m
attr unit m
par Aloha.host[974] y 109.894m
attr unit m
par Aloha.host[974] txrate 1000Bps
attr unit Bps
par Aloha.host[975] typename "\"Host\""
par Aloha.host[975] arrrate 0.7
par Aloha.host[975] packet_size 1B
attr unit B
par Aloha.host[975] x 6.3899m
attr unit m
par Aloha.host[975] y 192.999m
attr unit m
par Aloha.host[975] txrate 1000Bps
attr unit Bps
par Aloha.host[976] typename "\"Host\""
par Aloha.host[976] arrrate 0.7
par Aloha.host[976] packet_size 1B
attr unit B
par Aloha.host[976] x 181.042m
attr unit m
par Aloha.host[976] y 113.485m
attr unit m
par Aloha.host[976] txrate 1000Bps
attr unit Bps
par Aloha.host[977] typename "\"Host\""
par Aloha.host[977] arrrate 0.7
par Aloha.host[977] packet_size 1B
attr unit B
par Aloha.host[977] x 94.1624m
attr unit m
par Aloha.host[977] y 179.659m
attr unit m
par Aloha.host[977] txrate 1000Bps
attr unit Bps
par Aloha.host[978] typename "\"Host\""
par Aloha.host[978] arrrate 0.7
par Aloha.host[978] packet_size 1B
attr unit B
par Aloha.host[978] x 28.0765m
attr unit m
par Aloha.host[978] y 163.965m
attr unit m
par Aloha.host[978] txrate 1000Bps
attr unit Bps
par Aloha.host[979] typename "\"Host\""
par Aloha.host[979] arrrate 0.7
par Aloha.host[979] packet_size 1B
attr unit B
par Aloha.host[979] x 155.287m
attr unit m
par Aloha.host[979] y 60.7252m
attr unit m
par Aloha.host[979] txrate 1000Bps
attr unit Bps
par Aloha.host[980] typename "\"Host\""
par Aloha.host[980] arrrate 0.7
par Aloha.host[980] packet_size 1B
attr unit B
par Aloha.host[980] x 62.6711m
attr unit m
par Aloha.host[980] y 99.2112m
attr unit m
par Aloha.host[980] txrate 1000Bps
attr unit Bps
par Aloha.host[981] typename "\"Host\""
par Aloha.host[981] arrrate 0.7
par Aloha.host[981] packet_size 1B
attr unit B
par Aloha.host[981] x 127.389m
attr unit m
par Aloha.host[981] y 64.343m
attr unit m
par Aloha.host[981] txrate 1000Bps
attr unit Bps
par Aloha.host[982] typename "\"Host\""
par Aloha.host[982] arrrate 0.7
par Aloha.host[982] packet_size 1B
attr unit B
par Aloha.host[982] x 115.538m
attr unit m
par Aloha.host[982] y 118.332m
attr unit m
par Aloha.host[982] txrate 1000Bps
attr unit Bps
par Aloha.host[983] typename "\"Host\""
par Aloha.host[983] arrrate 0.7
par Aloha.host[983] packet_size 1B
attr unit B
par Aloha.host[983] x 36.6762m
attr unit m
par Aloha.host[983] y 28.1779m
attr unit m
par Aloha.host[983] txrate 1000Bps
attr unit Bps
par Aloha.host[984] typename "\"Host\""
par Aloha.host[984] arrrate 0.7
par Aloha.host[984] packet_size 1B
attr unit B
par Aloha.host[984] x 171.534m
attr unit m
par Aloha.host[984] y 173.89m
attr unit m
par Aloha.host[984] txrate 1000Bps
attr unit Bps
par Aloha.host[985] typename "\"Host\""
par Aloha.host[985] arrrate 0.7
par Aloha.host[985] packet_size 1B
attr unit B
par Aloha.host[985] x 84.9648m
attr unit m
par Aloha.host[985] y 151.954m
attr unit m
par Aloha.host[985] txrate 1000Bps
attr unit Bps
par Aloha.host[986] typename "\"Host\""
par Aloha.host[986] arrrate 0.7
par Aloha.host[986] packet_size 1B
attr unit B
par Aloha.host[986] x 149.884m
attr unit m
par Aloha.host[986] y 161.134m
attr unit m
par Aloha.host[986] txrate 1000Bps
attr unit Bps
par Aloha.host[987] typename "\"Host\""
par Aloha.host[987] arrrate 0.7
par Aloha.host[987] packet_size 1B
attr unit B
par Aloha.host[987] x 185.434m
attr unit m
par Aloha.host[987] y 163.989m
attr unit m
par Aloha.host[987] txrate 1000Bps
attr unit Bps
par Aloha.host[988] typename "\"Host\""
par Aloha.host[988] arrrate 0.7
par Aloha.host[988] packet_size 1B
attr unit B
par Aloha.host[988] x 63.391m
attr unit m
par Aloha.host[988] y 155.871m
attr unit m
par Aloha.host[988] txrate 1000Bps
attr unit Bps
par Aloha.host[989] typename "\"Host\""
par Aloha.host[989] arrrate 0.7
par Aloha.host[989] packet_size 1B
attr unit B
par Aloha.host[989] x 163.537m
attr unit m
par Aloha.host[989] y 15.2666m
attr unit m
par Aloha.host[989] txrate 1000Bps
attr unit Bps
par Aloha.host[990] typename "\"Host\""
par Aloha.host[990] arrrate 0.7
par Aloha.host[990] packet_size 1B
attr unit B
par Aloha.host[990] x 122.528m
attr unit m
par Aloha.host[990] y 118.256m
attr unit m
par Aloha.host[990] txrate 1000Bps
attr unit Bps
par Aloha.host[991] typename "\"Host\""
par Aloha.host[991] arrrate 0.7
par Aloha.host[991] packet_size 1B
attr unit B
par Aloha.host[991] x 50.8696m
attr unit m
par Aloha.host[991] y 163.108m
attr unit m
par Aloha.host[991] txrate 1000Bps
attr unit Bps
par Aloha.host[992] typename "\"Host\""
par Aloha.host[992] arrrate 0.7
par Aloha.host[992] packet_size 1B
attr unit B
par Aloha.host[992] x 140.022m
attr unit m
par Aloha.host[992] y 195.97m
attr unit m
par Aloha.host[992] txrate 1000Bps
attr unit Bps
par Aloha.host[993] typename "\"Host\""
par Aloha.host[993] arrrate 0.7
par Aloha.host[993] packet_size 1B
attr unit B
par Aloha.host[993] x 25.8824m
attr unit m
par Aloha.host[993] y 114.066m
attr unit m
par Aloha.host[993] txrate 1000Bps
attr unit Bps
par Aloha.host[994] typename "\"Host\""
par Aloha.host[994] arrrate 0.7
par Aloha.host[994] packet_size 1B
attr unit B
par Aloha.host[994] x 81.7044m
attr unit m
par Aloha.host[994] y 156.731m
attr unit m
par Aloha.host[994] txrate 1000Bps
attr unit Bps
par Aloha.host[995] typename "\"Host\""
par Aloha.host[995] arrrate 0.7
par Aloha.host[995] packet_size 1B
attr unit B
par Aloha.host[995] x 19.2603m
attr unit m
par Aloha.host[995] y 148.69m
attr unit m
par Aloha.host[995] txrate 1000Bps
attr unit Bps
par Aloha.host[996] typename "\"Host\""
par Aloha.host[996] arrrate 0.7
par Aloha.host[996] packet_size 1B
attr unit B
par Aloha.host[996] x 30.3278m
attr unit m
par Aloha.host[996] y 58.9453m
attr unit m
par Aloha.host[996] txrate 1000Bps
attr unit Bps
par Aloha.host[997] typename "\"Host\""
par Aloha.host[997] arrrate 0.7
par Aloha.host[997] packet_size 1B
attr unit B
par Aloha.host[997] x 60.7883m
attr unit m
par Aloha.host[997] y 124.546m
attr unit m
par Aloha.host[997] txrate 1000Bps
attr unit Bps
par Aloha.host[998] typename "\"Host\""
par Aloha.host[998] arrrate 0.7
par Aloha.host[998] packet_size 1B
attr unit B
par Aloha.host[998] x 146.569m
attr unit m
par Aloha.host[998] y 21.0758m
attr unit m
par Aloha.host[998] txrate 1000Bps
attr unit Bps
par Aloha.host[999] typename "\"Host\""
par Aloha.host[999] arrrate 0.7
par Aloha.host[999] packet_size 1B
attr unit B
par Aloha.host[999] x 27.024m
attr unit m
par Aloha.host[999] y 40.1132m
attr unit m
par Aloha.host[999] txrate 1000Bps
attr unit Bps
par Aloha.server typename "\"Server\""
par Aloha.server x 190.073m
attr unit m
par Aloha.server y 77.0684m
attr unit m
scalar Aloha.server prob_succ 0.24675764949185
scalar Aloha.server uti 17.26957
par Aloha typename "\"Aloha\""
par Aloha numHosts 1000

