version 3
run General-9-20220605-16:57:22-732257
attr configname General
attr datetime 20220605-16:57:22
attr datetimef 20220605-165722
attr experiment General
attr inifile aloha.ini
attr iterationvars $0=1
attr iterationvarsd 1
attr iterationvarsf 1-
attr measurement $0=1
attr network Aloha
attr processid 732257
attr repetition 0
attr replication #0
attr resultdir results
attr runnumber 9
attr seedset 9
config network Aloha
config cmdenv-performance-display false
config sim-time-limit 100000s
config **.x "uniform(0m, 200m)"
config **.y "uniform(0m, 200m)"
config *.numHosts 1000
config **.packet_size 1B
config **.txrate 1000Bps
config **.arrrate 1

par Aloha.host[0] typename "\"Host\""
par Aloha.host[0] arrrate 1
par Aloha.host[0] packet_size 1B
attr unit B
par Aloha.host[0] x 2.07483m
attr unit m
par Aloha.host[0] y 72.8922m
attr unit m
par Aloha.host[0] txrate 1000Bps
attr unit Bps
par Aloha.host[1] typename "\"Host\""
par Aloha.host[1] arrrate 1
par Aloha.host[1] packet_size 1B
attr unit B
par Aloha.host[1] x 100.375m
attr unit m
par Aloha.host[1] y 99.8261m
attr unit m
par Aloha.host[1] txrate 1000Bps
attr unit Bps
par Aloha.host[2] typename "\"Host\""
par Aloha.host[2] arrrate 1
par Aloha.host[2] packet_size 1B
attr unit B
par Aloha.host[2] x 99.1547m
attr unit m
par Aloha.host[2] y 1.50862m
attr unit m
par Aloha.host[2] txrate 1000Bps
attr unit Bps
par Aloha.host[3] typename "\"Host\""
par Aloha.host[3] arrrate 1
par Aloha.host[3] packet_size 1B
attr unit B
par Aloha.host[3] x 26.7659m
attr unit m
par Aloha.host[3] y 63.2449m
attr unit m
par Aloha.host[3] txrate 1000Bps
attr unit Bps
par Aloha.host[4] typename "\"Host\""
par Aloha.host[4] arrrate 1
par Aloha.host[4] packet_size 1B
attr unit B
par Aloha.host[4] x 28.4222m
attr unit m
par Aloha.host[4] y 2.6644m
attr unit m
par Aloha.host[4] txrate 1000Bps
attr unit Bps
par Aloha.host[5] typename "\"Host\""
par Aloha.host[5] arrrate 1
par Aloha.host[5] packet_size 1B
attr unit B
par Aloha.host[5] x 43.7117m
attr unit m
par Aloha.host[5] y 175.444m
attr unit m
par Aloha.host[5] txrate 1000Bps
attr unit Bps
par Aloha.host[6] typename "\"Host\""
par Aloha.host[6] arrrate 1
par Aloha.host[6] packet_size 1B
attr unit B
par Aloha.host[6] x 83.7016m
attr unit m
par Aloha.host[6] y 27.5054m
attr unit m
par Aloha.host[6] txrate 1000Bps
attr unit Bps
par Aloha.host[7] typename "\"Host\""
par Aloha.host[7] arrrate 1
par Aloha.host[7] packet_size 1B
attr unit B
par Aloha.host[7] x 49.6202m
attr unit m
par Aloha.host[7] y 27.7227m
attr unit m
par Aloha.host[7] txrate 1000Bps
attr unit Bps
par Aloha.host[8] typename "\"Host\""
par Aloha.host[8] arrrate 1
par Aloha.host[8] packet_size 1B
attr unit B
par Aloha.host[8] x 16.8119m
attr unit m
par Aloha.host[8] y 79.1772m
attr unit m
par Aloha.host[8] txrate 1000Bps
attr unit Bps
par Aloha.host[9] typename "\"Host\""
par Aloha.host[9] arrrate 1
par Aloha.host[9] packet_size 1B
attr unit B
par Aloha.host[9] x 69.0997m
attr unit m
par Aloha.host[9] y 98.9309m
attr unit m
par Aloha.host[9] txrate 1000Bps
attr unit Bps
par Aloha.host[10] typename "\"Host\""
par Aloha.host[10] arrrate 1
par Aloha.host[10] packet_size 1B
attr unit B
par Aloha.host[10] x 33.3553m
attr unit m
par Aloha.host[10] y 63.1418m
attr unit m
par Aloha.host[10] txrate 1000Bps
attr unit Bps
par Aloha.host[11] typename "\"Host\""
par Aloha.host[11] arrrate 1
par Aloha.host[11] packet_size 1B
attr unit B
par Aloha.host[11] x 175.712m
attr unit m
par Aloha.host[11] y 74.7902m
attr unit m
par Aloha.host[11] txrate 1000Bps
attr unit Bps
par Aloha.host[12] typename "\"Host\""
par Aloha.host[12] arrrate 1
par Aloha.host[12] packet_size 1B
attr unit B
par Aloha.host[12] x 190.193m
attr unit m
par Aloha.host[12] y 146.932m
attr unit m
par Aloha.host[12] txrate 1000Bps
attr unit Bps
par Aloha.host[13] typename "\"Host\""
par Aloha.host[13] arrrate 1
par Aloha.host[13] packet_size 1B
attr unit B
par Aloha.host[13] x 7.74967m
attr unit m
par Aloha.host[13] y 193.581m
attr unit m
par Aloha.host[13] txrate 1000Bps
attr unit Bps
par Aloha.host[14] typename "\"Host\""
par Aloha.host[14] arrrate 1
par Aloha.host[14] packet_size 1B
attr unit B
par Aloha.host[14] x 139.821m
attr unit m
par Aloha.host[14] y 140.31m
attr unit m
par Aloha.host[14] txrate 1000Bps
attr unit Bps
par Aloha.host[15] typename "\"Host\""
par Aloha.host[15] arrrate 1
par Aloha.host[15] packet_size 1B
attr unit B
par Aloha.host[15] x 114.552m
attr unit m
par Aloha.host[15] y 27.085m
attr unit m
par Aloha.host[15] txrate 1000Bps
attr unit Bps
par Aloha.host[16] typename "\"Host\""
par Aloha.host[16] arrrate 1
par Aloha.host[16] packet_size 1B
attr unit B
par Aloha.host[16] x 179.601m
attr unit m
par Aloha.host[16] y 27.2014m
attr unit m
par Aloha.host[16] txrate 1000Bps
attr unit Bps
par Aloha.host[17] typename "\"Host\""
par Aloha.host[17] arrrate 1
par Aloha.host[17] packet_size 1B
attr unit B
par Aloha.host[17] x 133.38m
attr unit m
par Aloha.host[17] y 190.161m
attr unit m
par Aloha.host[17] txrate 1000Bps
attr unit Bps
par Aloha.host[18] typename "\"Host\""
par Aloha.host[18] arrrate 1
par Aloha.host[18] packet_size 1B
attr unit B
par Aloha.host[18] x 109.568m
attr unit m
par Aloha.host[18] y 110.611m
attr unit m
par Aloha.host[18] txrate 1000Bps
attr unit Bps
par Aloha.host[19] typename "\"Host\""
par Aloha.host[19] arrrate 1
par Aloha.host[19] packet_size 1B
attr unit B
par Aloha.host[19] x 140.485m
attr unit m
par Aloha.host[19] y 188.661m
attr unit m
par Aloha.host[19] txrate 1000Bps
attr unit Bps
par Aloha.host[20] typename "\"Host\""
par Aloha.host[20] arrrate 1
par Aloha.host[20] packet_size 1B
attr unit B
par Aloha.host[20] x 77.2954m
attr unit m
par Aloha.host[20] y 125.91m
attr unit m
par Aloha.host[20] txrate 1000Bps
attr unit Bps
par Aloha.host[21] typename "\"Host\""
par Aloha.host[21] arrrate 1
par Aloha.host[21] packet_size 1B
attr unit B
par Aloha.host[21] x 138.888m
attr unit m
par Aloha.host[21] y 112.974m
attr unit m
par Aloha.host[21] txrate 1000Bps
attr unit Bps
par Aloha.host[22] typename "\"Host\""
par Aloha.host[22] arrrate 1
par Aloha.host[22] packet_size 1B
attr unit B
par Aloha.host[22] x 164.974m
attr unit m
par Aloha.host[22] y 127.914m
attr unit m
par Aloha.host[22] txrate 1000Bps
attr unit Bps
par Aloha.host[23] typename "\"Host\""
par Aloha.host[23] arrrate 1
par Aloha.host[23] packet_size 1B
attr unit B
par Aloha.host[23] x 93.1337m
attr unit m
par Aloha.host[23] y 153.004m
attr unit m
par Aloha.host[23] txrate 1000Bps
attr unit Bps
par Aloha.host[24] typename "\"Host\""
par Aloha.host[24] arrrate 1
par Aloha.host[24] packet_size 1B
attr unit B
par Aloha.host[24] x 188.105m
attr unit m
par Aloha.host[24] y 75.0419m
attr unit m
par Aloha.host[24] txrate 1000Bps
attr unit Bps
par Aloha.host[25] typename "\"Host\""
par Aloha.host[25] arrrate 1
par Aloha.host[25] packet_size 1B
attr unit B
par Aloha.host[25] x 160.748m
attr unit m
par Aloha.host[25] y 166.859m
attr unit m
par Aloha.host[25] txrate 1000Bps
attr unit Bps
par Aloha.host[26] typename "\"Host\""
par Aloha.host[26] arrrate 1
par Aloha.host[26] packet_size 1B
attr unit B
par Aloha.host[26] x 196.672m
attr unit m
par Aloha.host[26] y 20.8916m
attr unit m
par Aloha.host[26] txrate 1000Bps
attr unit Bps
par Aloha.host[27] typename "\"Host\""
par Aloha.host[27] arrrate 1
par Aloha.host[27] packet_size 1B
attr unit B
par Aloha.host[27] x 33.9273m
attr unit m
par Aloha.host[27] y 15.8632m
attr unit m
par Aloha.host[27] txrate 1000Bps
attr unit Bps
par Aloha.host[28] typename "\"Host\""
par Aloha.host[28] arrrate 1
par Aloha.host[28] packet_size 1B
attr unit B
par Aloha.host[28] x 104.217m
attr unit m
par Aloha.host[28] y 13.5339m
attr unit m
par Aloha.host[28] txrate 1000Bps
attr unit Bps
par Aloha.host[29] typename "\"Host\""
par Aloha.host[29] arrrate 1
par Aloha.host[29] packet_size 1B
attr unit B
par Aloha.host[29] x 189.103m
attr unit m
par Aloha.host[29] y 98.1959m
attr unit m
par Aloha.host[29] txrate 1000Bps
attr unit Bps
par Aloha.host[30] typename "\"Host\""
par Aloha.host[30] arrrate 1
par Aloha.host[30] packet_size 1B
attr unit B
par Aloha.host[30] x 129.908m
attr unit m
par Aloha.host[30] y 41.8934m
attr unit m
par Aloha.host[30] txrate 1000Bps
attr unit Bps
par Aloha.host[31] typename "\"Host\""
par Aloha.host[31] arrrate 1
par Aloha.host[31] packet_size 1B
attr unit B
par Aloha.host[31] x 172.166m
attr unit m
par Aloha.host[31] y 185.045m
attr unit m
par Aloha.host[31] txrate 1000Bps
attr unit Bps
par Aloha.host[32] typename "\"Host\""
par Aloha.host[32] arrrate 1
par Aloha.host[32] packet_size 1B
attr unit B
par Aloha.host[32] x 194.169m
attr unit m
par Aloha.host[32] y 196.122m
attr unit m
par Aloha.host[32] txrate 1000Bps
attr unit Bps
par Aloha.host[33] typename "\"Host\""
par Aloha.host[33] arrrate 1
par Aloha.host[33] packet_size 1B
attr unit B
par Aloha.host[33] x 37.1083m
attr unit m
par Aloha.host[33] y 133.926m
attr unit m
par Aloha.host[33] txrate 1000Bps
attr unit Bps
par Aloha.host[34] typename "\"Host\""
par Aloha.host[34] arrrate 1
par Aloha.host[34] packet_size 1B
attr unit B
par Aloha.host[34] x 48.6231m
attr unit m
par Aloha.host[34] y 116.35m
attr unit m
par Aloha.host[34] txrate 1000Bps
attr unit Bps
par Aloha.host[35] typename "\"Host\""
par Aloha.host[35] arrrate 1
par Aloha.host[35] packet_size 1B
attr unit B
par Aloha.host[35] x 174.68m
attr unit m
par Aloha.host[35] y 158.863m
attr unit m
par Aloha.host[35] txrate 1000Bps
attr unit Bps
par Aloha.host[36] typename "\"Host\""
par Aloha.host[36] arrrate 1
par Aloha.host[36] packet_size 1B
attr unit B
par Aloha.host[36] x 181.255m
attr unit m
par Aloha.host[36] y 9.34001m
attr unit m
par Aloha.host[36] txrate 1000Bps
attr unit Bps
par Aloha.host[37] typename "\"Host\""
par Aloha.host[37] arrrate 1
par Aloha.host[37] packet_size 1B
attr unit B
par Aloha.host[37] x 151.656m
attr unit m
par Aloha.host[37] y 116.052m
attr unit m
par Aloha.host[37] txrate 1000Bps
attr unit Bps
par Aloha.host[38] typename "\"Host\""
par Aloha.host[38] arrrate 1
par Aloha.host[38] packet_size 1B
attr unit B
par Aloha.host[38] x 69.3804m
attr unit m
par Aloha.host[38] y 14.9023m
attr unit m
par Aloha.host[38] txrate 1000Bps
attr unit Bps
par Aloha.host[39] typename "\"Host\""
par Aloha.host[39] arrrate 1
par Aloha.host[39] packet_size 1B
attr unit B
par Aloha.host[39] x 92.7069m
attr unit m
par Aloha.host[39] y 32.014m
attr unit m
par Aloha.host[39] txrate 1000Bps
attr unit Bps
par Aloha.host[40] typename "\"Host\""
par Aloha.host[40] arrrate 1
par Aloha.host[40] packet_size 1B
attr unit B
par Aloha.host[40] x 122.108m
attr unit m
par Aloha.host[40] y 86.9777m
attr unit m
par Aloha.host[40] txrate 1000Bps
attr unit Bps
par Aloha.host[41] typename "\"Host\""
par Aloha.host[41] arrrate 1
par Aloha.host[41] packet_size 1B
attr unit B
par Aloha.host[41] x 99.2563m
attr unit m
par Aloha.host[41] y 118.753m
attr unit m
par Aloha.host[41] txrate 1000Bps
attr unit Bps
par Aloha.host[42] typename "\"Host\""
par Aloha.host[42] arrrate 1
par Aloha.host[42] packet_size 1B
attr unit B
par Aloha.host[42] x 95.5948m
attr unit m
par Aloha.host[42] y 28.0316m
attr unit m
par Aloha.host[42] txrate 1000Bps
attr unit Bps
par Aloha.host[43] typename "\"Host\""
par Aloha.host[43] arrrate 1
par Aloha.host[43] packet_size 1B
attr unit B
par Aloha.host[43] x 87.1111m
attr unit m
par Aloha.host[43] y 179.785m
attr unit m
par Aloha.host[43] txrate 1000Bps
attr unit Bps
par Aloha.host[44] typename "\"Host\""
par Aloha.host[44] arrrate 1
par Aloha.host[44] packet_size 1B
attr unit B
par Aloha.host[44] x 174.082m
attr unit m
par Aloha.host[44] y 195.744m
attr unit m
par Aloha.host[44] txrate 1000Bps
attr unit Bps
par Aloha.host[45] typename "\"Host\""
par Aloha.host[45] arrrate 1
par Aloha.host[45] packet_size 1B
attr unit B
par Aloha.host[45] x 37.4717m
attr unit m
par Aloha.host[45] y 185.948m
attr unit m
par Aloha.host[45] txrate 1000Bps
attr unit Bps
par Aloha.host[46] typename "\"Host\""
par Aloha.host[46] arrrate 1
par Aloha.host[46] packet_size 1B
attr unit B
par Aloha.host[46] x 137.535m
attr unit m
par Aloha.host[46] y 78.5562m
attr unit m
par Aloha.host[46] txrate 1000Bps
attr unit Bps
par Aloha.host[47] typename "\"Host\""
par Aloha.host[47] arrrate 1
par Aloha.host[47] packet_size 1B
attr unit B
par Aloha.host[47] x 140.706m
attr unit m
par Aloha.host[47] y 57.8679m
attr unit m
par Aloha.host[47] txrate 1000Bps
attr unit Bps
par Aloha.host[48] typename "\"Host\""
par Aloha.host[48] arrrate 1
par Aloha.host[48] packet_size 1B
attr unit B
par Aloha.host[48] x 185.04m
attr unit m
par Aloha.host[48] y 63.3505m
attr unit m
par Aloha.host[48] txrate 1000Bps
attr unit Bps
par Aloha.host[49] typename "\"Host\""
par Aloha.host[49] arrrate 1
par Aloha.host[49] packet_size 1B
attr unit B
par Aloha.host[49] x 7.89096m
attr unit m
par Aloha.host[49] y 197.379m
attr unit m
par Aloha.host[49] txrate 1000Bps
attr unit Bps
par Aloha.host[50] typename "\"Host\""
par Aloha.host[50] arrrate 1
par Aloha.host[50] packet_size 1B
attr unit B
par Aloha.host[50] x 129.423m
attr unit m
par Aloha.host[50] y 8.57033m
attr unit m
par Aloha.host[50] txrate 1000Bps
attr unit Bps
par Aloha.host[51] typename "\"Host\""
par Aloha.host[51] arrrate 1
par Aloha.host[51] packet_size 1B
attr unit B
par Aloha.host[51] x 127.611m
attr unit m
par Aloha.host[51] y 34.0228m
attr unit m
par Aloha.host[51] txrate 1000Bps
attr unit Bps
par Aloha.host[52] typename "\"Host\""
par Aloha.host[52] arrrate 1
par Aloha.host[52] packet_size 1B
attr unit B
par Aloha.host[52] x 92.3395m
attr unit m
par Aloha.host[52] y 55.9456m
attr unit m
par Aloha.host[52] txrate 1000Bps
attr unit Bps
par Aloha.host[53] typename "\"Host\""
par Aloha.host[53] arrrate 1
par Aloha.host[53] packet_size 1B
attr unit B
par Aloha.host[53] x 10.6119m
attr unit m
par Aloha.host[53] y 80.6834m
attr unit m
par Aloha.host[53] txrate 1000Bps
attr unit Bps
par Aloha.host[54] typename "\"Host\""
par Aloha.host[54] arrrate 1
par Aloha.host[54] packet_size 1B
attr unit B
par Aloha.host[54] x 7.71418m
attr unit m
par Aloha.host[54] y 134.743m
attr unit m
par Aloha.host[54] txrate 1000Bps
attr unit Bps
par Aloha.host[55] typename "\"Host\""
par Aloha.host[55] arrrate 1
par Aloha.host[55] packet_size 1B
attr unit B
par Aloha.host[55] x 33.9063m
attr unit m
par Aloha.host[55] y 47.9216m
attr unit m
par Aloha.host[55] txrate 1000Bps
attr unit Bps
par Aloha.host[56] typename "\"Host\""
par Aloha.host[56] arrrate 1
par Aloha.host[56] packet_size 1B
attr unit B
par Aloha.host[56] x 158.91m
attr unit m
par Aloha.host[56] y 35.4921m
attr unit m
par Aloha.host[56] txrate 1000Bps
attr unit Bps
par Aloha.host[57] typename "\"Host\""
par Aloha.host[57] arrrate 1
par Aloha.host[57] packet_size 1B
attr unit B
par Aloha.host[57] x 32.5212m
attr unit m
par Aloha.host[57] y 25.6713m
attr unit m
par Aloha.host[57] txrate 1000Bps
attr unit Bps
par Aloha.host[58] typename "\"Host\""
par Aloha.host[58] arrrate 1
par Aloha.host[58] packet_size 1B
attr unit B
par Aloha.host[58] x 27.7477m
attr unit m
par Aloha.host[58] y 14.0171m
attr unit m
par Aloha.host[58] txrate 1000Bps
attr unit Bps
par Aloha.host[59] typename "\"Host\""
par Aloha.host[59] arrrate 1
par Aloha.host[59] packet_size 1B
attr unit B
par Aloha.host[59] x 70.5834m
attr unit m
par Aloha.host[59] y 127.115m
attr unit m
par Aloha.host[59] txrate 1000Bps
attr unit Bps
par Aloha.host[60] typename "\"Host\""
par Aloha.host[60] arrrate 1
par Aloha.host[60] packet_size 1B
attr unit B
par Aloha.host[60] x 96.8997m
attr unit m
par Aloha.host[60] y 174.024m
attr unit m
par Aloha.host[60] txrate 1000Bps
attr unit Bps
par Aloha.host[61] typename "\"Host\""
par Aloha.host[61] arrrate 1
par Aloha.host[61] packet_size 1B
attr unit B
par Aloha.host[61] x 139.547m
attr unit m
par Aloha.host[61] y 70.8493m
attr unit m
par Aloha.host[61] txrate 1000Bps
attr unit Bps
par Aloha.host[62] typename "\"Host\""
par Aloha.host[62] arrrate 1
par Aloha.host[62] packet_size 1B
attr unit B
par Aloha.host[62] x 160.231m
attr unit m
par Aloha.host[62] y 6.95643m
attr unit m
par Aloha.host[62] txrate 1000Bps
attr unit Bps
par Aloha.host[63] typename "\"Host\""
par Aloha.host[63] arrrate 1
par Aloha.host[63] packet_size 1B
attr unit B
par Aloha.host[63] x 53.3549m
attr unit m
par Aloha.host[63] y 155.842m
attr unit m
par Aloha.host[63] txrate 1000Bps
attr unit Bps
par Aloha.host[64] typename "\"Host\""
par Aloha.host[64] arrrate 1
par Aloha.host[64] packet_size 1B
attr unit B
par Aloha.host[64] x 181.895m
attr unit m
par Aloha.host[64] y 95.339m
attr unit m
par Aloha.host[64] txrate 1000Bps
attr unit Bps
par Aloha.host[65] typename "\"Host\""
par Aloha.host[65] arrrate 1
par Aloha.host[65] packet_size 1B
attr unit B
par Aloha.host[65] x 4.57339m
attr unit m
par Aloha.host[65] y 14.2439m
attr unit m
par Aloha.host[65] txrate 1000Bps
attr unit Bps
par Aloha.host[66] typename "\"Host\""
par Aloha.host[66] arrrate 1
par Aloha.host[66] packet_size 1B
attr unit B
par Aloha.host[66] x 75.0246m
attr unit m
par Aloha.host[66] y 180.653m
attr unit m
par Aloha.host[66] txrate 1000Bps
attr unit Bps
par Aloha.host[67] typename "\"Host\""
par Aloha.host[67] arrrate 1
par Aloha.host[67] packet_size 1B
attr unit B
par Aloha.host[67] x 39.9267m
attr unit m
par Aloha.host[67] y 160.848m
attr unit m
par Aloha.host[67] txrate 1000Bps
attr unit Bps
par Aloha.host[68] typename "\"Host\""
par Aloha.host[68] arrrate 1
par Aloha.host[68] packet_size 1B
attr unit B
par Aloha.host[68] x 68.561m
attr unit m
par Aloha.host[68] y 0.912769m
attr unit m
par Aloha.host[68] txrate 1000Bps
attr unit Bps
par Aloha.host[69] typename "\"Host\""
par Aloha.host[69] arrrate 1
par Aloha.host[69] packet_size 1B
attr unit B
par Aloha.host[69] x 88.8225m
attr unit m
par Aloha.host[69] y 43.5355m
attr unit m
par Aloha.host[69] txrate 1000Bps
attr unit Bps
par Aloha.host[70] typename "\"Host\""
par Aloha.host[70] arrrate 1
par Aloha.host[70] packet_size 1B
attr unit B
par Aloha.host[70] x 99.6279m
attr unit m
par Aloha.host[70] y 145.913m
attr unit m
par Aloha.host[70] txrate 1000Bps
attr unit Bps
par Aloha.host[71] typename "\"Host\""
par Aloha.host[71] arrrate 1
par Aloha.host[71] packet_size 1B
attr unit B
par Aloha.host[71] x 82.8693m
attr unit m
par Aloha.host[71] y 63.9511m
attr unit m
par Aloha.host[71] txrate 1000Bps
attr unit Bps
par Aloha.host[72] typename "\"Host\""
par Aloha.host[72] arrrate 1
par Aloha.host[72] packet_size 1B
attr unit B
par Aloha.host[72] x 42.8512m
attr unit m
par Aloha.host[72] y 109.774m
attr unit m
par Aloha.host[72] txrate 1000Bps
attr unit Bps
par Aloha.host[73] typename "\"Host\""
par Aloha.host[73] arrrate 1
par Aloha.host[73] packet_size 1B
attr unit B
par Aloha.host[73] x 43.3279m
attr unit m
par Aloha.host[73] y 7.35442m
attr unit m
par Aloha.host[73] txrate 1000Bps
attr unit Bps
par Aloha.host[74] typename "\"Host\""
par Aloha.host[74] arrrate 1
par Aloha.host[74] packet_size 1B
attr unit B
par Aloha.host[74] x 46.4614m
attr unit m
par Aloha.host[74] y 163.446m
attr unit m
par Aloha.host[74] txrate 1000Bps
attr unit Bps
par Aloha.host[75] typename "\"Host\""
par Aloha.host[75] arrrate 1
par Aloha.host[75] packet_size 1B
attr unit B
par Aloha.host[75] x 145.817m
attr unit m
par Aloha.host[75] y 103.589m
attr unit m
par Aloha.host[75] txrate 1000Bps
attr unit Bps
par Aloha.host[76] typename "\"Host\""
par Aloha.host[76] arrrate 1
par Aloha.host[76] packet_size 1B
attr unit B
par Aloha.host[76] x 83.1837m
attr unit m
par Aloha.host[76] y 103.903m
attr unit m
par Aloha.host[76] txrate 1000Bps
attr unit Bps
par Aloha.host[77] typename "\"Host\""
par Aloha.host[77] arrrate 1
par Aloha.host[77] packet_size 1B
attr unit B
par Aloha.host[77] x 116.78m
attr unit m
par Aloha.host[77] y 167.27m
attr unit m
par Aloha.host[77] txrate 1000Bps
attr unit Bps
par Aloha.host[78] typename "\"Host\""
par Aloha.host[78] arrrate 1
par Aloha.host[78] packet_size 1B
attr unit B
par Aloha.host[78] x 98.8673m
attr unit m
par Aloha.host[78] y 1.62901m
attr unit m
par Aloha.host[78] txrate 1000Bps
attr unit Bps
par Aloha.host[79] typename "\"Host\""
par Aloha.host[79] arrrate 1
par Aloha.host[79] packet_size 1B
attr unit B
par Aloha.host[79] x 86.0094m
attr unit m
par Aloha.host[79] y 67.4127m
attr unit m
par Aloha.host[79] txrate 1000Bps
attr unit Bps
par Aloha.host[80] typename "\"Host\""
par Aloha.host[80] arrrate 1
par Aloha.host[80] packet_size 1B
attr unit B
par Aloha.host[80] x 146.953m
attr unit m
par Aloha.host[80] y 114.932m
attr unit m
par Aloha.host[80] txrate 1000Bps
attr unit Bps
par Aloha.host[81] typename "\"Host\""
par Aloha.host[81] arrrate 1
par Aloha.host[81] packet_size 1B
attr unit B
par Aloha.host[81] x 111.243m
attr unit m
par Aloha.host[81] y 26.9855m
attr unit m
par Aloha.host[81] txrate 1000Bps
attr unit Bps
par Aloha.host[82] typename "\"Host\""
par Aloha.host[82] arrrate 1
par Aloha.host[82] packet_size 1B
attr unit B
par Aloha.host[82] x 60.5261m
attr unit m
par Aloha.host[82] y 29.3576m
attr unit m
par Aloha.host[82] txrate 1000Bps
attr unit Bps
par Aloha.host[83] typename "\"Host\""
par Aloha.host[83] arrrate 1
par Aloha.host[83] packet_size 1B
attr unit B
par Aloha.host[83] x 194.16m
attr unit m
par Aloha.host[83] y 10.8727m
attr unit m
par Aloha.host[83] txrate 1000Bps
attr unit Bps
par Aloha.host[84] typename "\"Host\""
par Aloha.host[84] arrrate 1
par Aloha.host[84] packet_size 1B
attr unit B
par Aloha.host[84] x 44.9685m
attr unit m
par Aloha.host[84] y 111.355m
attr unit m
par Aloha.host[84] txrate 1000Bps
attr unit Bps
par Aloha.host[85] typename "\"Host\""
par Aloha.host[85] arrrate 1
par Aloha.host[85] packet_size 1B
attr unit B
par Aloha.host[85] x 27.7538m
attr unit m
par Aloha.host[85] y 192.586m
attr unit m
par Aloha.host[85] txrate 1000Bps
attr unit Bps
par Aloha.host[86] typename "\"Host\""
par Aloha.host[86] arrrate 1
par Aloha.host[86] packet_size 1B
attr unit B
par Aloha.host[86] x 122.986m
attr unit m
par Aloha.host[86] y 143.307m
attr unit m
par Aloha.host[86] txrate 1000Bps
attr unit Bps
par Aloha.host[87] typename "\"Host\""
par Aloha.host[87] arrrate 1
par Aloha.host[87] packet_size 1B
attr unit B
par Aloha.host[87] x 98.3858m
attr unit m
par Aloha.host[87] y 113.65m
attr unit m
par Aloha.host[87] txrate 1000Bps
attr unit Bps
par Aloha.host[88] typename "\"Host\""
par Aloha.host[88] arrrate 1
par Aloha.host[88] packet_size 1B
attr unit B
par Aloha.host[88] x 36.6305m
attr unit m
par Aloha.host[88] y 157.585m
attr unit m
par Aloha.host[88] txrate 1000Bps
attr unit Bps
par Aloha.host[89] typename "\"Host\""
par Aloha.host[89] arrrate 1
par Aloha.host[89] packet_size 1B
attr unit B
par Aloha.host[89] x 21.8621m
attr unit m
par Aloha.host[89] y 198.383m
attr unit m
par Aloha.host[89] txrate 1000Bps
attr unit Bps
par Aloha.host[90] typename "\"Host\""
par Aloha.host[90] arrrate 1
par Aloha.host[90] packet_size 1B
attr unit B
par Aloha.host[90] x 107.915m
attr unit m
par Aloha.host[90] y 7.92587m
attr unit m
par Aloha.host[90] txrate 1000Bps
attr unit Bps
par Aloha.host[91] typename "\"Host\""
par Aloha.host[91] arrrate 1
par Aloha.host[91] packet_size 1B
attr unit B
par Aloha.host[91] x 57.8599m
attr unit m
par Aloha.host[91] y 56.2875m
attr unit m
par Aloha.host[91] txrate 1000Bps
attr unit Bps
par Aloha.host[92] typename "\"Host\""
par Aloha.host[92] arrrate 1
par Aloha.host[92] packet_size 1B
attr unit B
par Aloha.host[92] x 20.6108m
attr unit m
par Aloha.host[92] y 139.996m
attr unit m
par Aloha.host[92] txrate 1000Bps
attr unit Bps
par Aloha.host[93] typename "\"Host\""
par Aloha.host[93] arrrate 1
par Aloha.host[93] packet_size 1B
attr unit B
par Aloha.host[93] x 98.1203m
attr unit m
par Aloha.host[93] y 29.8478m
attr unit m
par Aloha.host[93] txrate 1000Bps
attr unit Bps
par Aloha.host[94] typename "\"Host\""
par Aloha.host[94] arrrate 1
par Aloha.host[94] packet_size 1B
attr unit B
par Aloha.host[94] x 126.418m
attr unit m
par Aloha.host[94] y 162.496m
attr unit m
par Aloha.host[94] txrate 1000Bps
attr unit Bps
par Aloha.host[95] typename "\"Host\""
par Aloha.host[95] arrrate 1
par Aloha.host[95] packet_size 1B
attr unit B
par Aloha.host[95] x 7.59384m
attr unit m
par Aloha.host[95] y 5.97483m
attr unit m
par Aloha.host[95] txrate 1000Bps
attr unit Bps
par Aloha.host[96] typename "\"Host\""
par Aloha.host[96] arrrate 1
par Aloha.host[96] packet_size 1B
attr unit B
par Aloha.host[96] x 100.022m
attr unit m
par Aloha.host[96] y 167.3m
attr unit m
par Aloha.host[96] txrate 1000Bps
attr unit Bps
par Aloha.host[97] typename "\"Host\""
par Aloha.host[97] arrrate 1
par Aloha.host[97] packet_size 1B
attr unit B
par Aloha.host[97] x 16.7087m
attr unit m
par Aloha.host[97] y 70.8915m
attr unit m
par Aloha.host[97] txrate 1000Bps
attr unit Bps
par Aloha.host[98] typename "\"Host\""
par Aloha.host[98] arrrate 1
par Aloha.host[98] packet_size 1B
attr unit B
par Aloha.host[98] x 158.264m
attr unit m
par Aloha.host[98] y 118.472m
attr unit m
par Aloha.host[98] txrate 1000Bps
attr unit Bps
par Aloha.host[99] typename "\"Host\""
par Aloha.host[99] arrrate 1
par Aloha.host[99] packet_size 1B
attr unit B
par Aloha.host[99] x 151.607m
attr unit m
par Aloha.host[99] y 1.45715m
attr unit m
par Aloha.host[99] txrate 1000Bps
attr unit Bps
par Aloha.host[100] typename "\"Host\""
par Aloha.host[100] arrrate 1
par Aloha.host[100] packet_size 1B
attr unit B
par Aloha.host[100] x 52.4546m
attr unit m
par Aloha.host[100] y 162.283m
attr unit m
par Aloha.host[100] txrate 1000Bps
attr unit Bps
par Aloha.host[101] typename "\"Host\""
par Aloha.host[101] arrrate 1
par Aloha.host[101] packet_size 1B
attr unit B
par Aloha.host[101] x 20.1717m
attr unit m
par Aloha.host[101] y 187.874m
attr unit m
par Aloha.host[101] txrate 1000Bps
attr unit Bps
par Aloha.host[102] typename "\"Host\""
par Aloha.host[102] arrrate 1
par Aloha.host[102] packet_size 1B
attr unit B
par Aloha.host[102] x 183.439m
attr unit m
par Aloha.host[102] y 31.805m
attr unit m
par Aloha.host[102] txrate 1000Bps
attr unit Bps
par Aloha.host[103] typename "\"Host\""
par Aloha.host[103] arrrate 1
par Aloha.host[103] packet_size 1B
attr unit B
par Aloha.host[103] x 103.492m
attr unit m
par Aloha.host[103] y 196.109m
attr unit m
par Aloha.host[103] txrate 1000Bps
attr unit Bps
par Aloha.host[104] typename "\"Host\""
par Aloha.host[104] arrrate 1
par Aloha.host[104] packet_size 1B
attr unit B
par Aloha.host[104] x 26.7079m
attr unit m
par Aloha.host[104] y 180.06m
attr unit m
par Aloha.host[104] txrate 1000Bps
attr unit Bps
par Aloha.host[105] typename "\"Host\""
par Aloha.host[105] arrrate 1
par Aloha.host[105] packet_size 1B
attr unit B
par Aloha.host[105] x 22.5086m
attr unit m
par Aloha.host[105] y 13.7888m
attr unit m
par Aloha.host[105] txrate 1000Bps
attr unit Bps
par Aloha.host[106] typename "\"Host\""
par Aloha.host[106] arrrate 1
par Aloha.host[106] packet_size 1B
attr unit B
par Aloha.host[106] x 168.328m
attr unit m
par Aloha.host[106] y 146.29m
attr unit m
par Aloha.host[106] txrate 1000Bps
attr unit Bps
par Aloha.host[107] typename "\"Host\""
par Aloha.host[107] arrrate 1
par Aloha.host[107] packet_size 1B
attr unit B
par Aloha.host[107] x 109.215m
attr unit m
par Aloha.host[107] y 91.0624m
attr unit m
par Aloha.host[107] txrate 1000Bps
attr unit Bps
par Aloha.host[108] typename "\"Host\""
par Aloha.host[108] arrrate 1
par Aloha.host[108] packet_size 1B
attr unit B
par Aloha.host[108] x 52.2033m
attr unit m
par Aloha.host[108] y 152.077m
attr unit m
par Aloha.host[108] txrate 1000Bps
attr unit Bps
par Aloha.host[109] typename "\"Host\""
par Aloha.host[109] arrrate 1
par Aloha.host[109] packet_size 1B
attr unit B
par Aloha.host[109] x 115.165m
attr unit m
par Aloha.host[109] y 145.241m
attr unit m
par Aloha.host[109] txrate 1000Bps
attr unit Bps
par Aloha.host[110] typename "\"Host\""
par Aloha.host[110] arrrate 1
par Aloha.host[110] packet_size 1B
attr unit B
par Aloha.host[110] x 62.7705m
attr unit m
par Aloha.host[110] y 161.722m
attr unit m
par Aloha.host[110] txrate 1000Bps
attr unit Bps
par Aloha.host[111] typename "\"Host\""
par Aloha.host[111] arrrate 1
par Aloha.host[111] packet_size 1B
attr unit B
par Aloha.host[111] x 158.325m
attr unit m
par Aloha.host[111] y 72.7988m
attr unit m
par Aloha.host[111] txrate 1000Bps
attr unit Bps
par Aloha.host[112] typename "\"Host\""
par Aloha.host[112] arrrate 1
par Aloha.host[112] packet_size 1B
attr unit B
par Aloha.host[112] x 98.6181m
attr unit m
par Aloha.host[112] y 184.387m
attr unit m
par Aloha.host[112] txrate 1000Bps
attr unit Bps
par Aloha.host[113] typename "\"Host\""
par Aloha.host[113] arrrate 1
par Aloha.host[113] packet_size 1B
attr unit B
par Aloha.host[113] x 193.032m
attr unit m
par Aloha.host[113] y 108.923m
attr unit m
par Aloha.host[113] txrate 1000Bps
attr unit Bps
par Aloha.host[114] typename "\"Host\""
par Aloha.host[114] arrrate 1
par Aloha.host[114] packet_size 1B
attr unit B
par Aloha.host[114] x 104.062m
attr unit m
par Aloha.host[114] y 8.33401m
attr unit m
par Aloha.host[114] txrate 1000Bps
attr unit Bps
par Aloha.host[115] typename "\"Host\""
par Aloha.host[115] arrrate 1
par Aloha.host[115] packet_size 1B
attr unit B
par Aloha.host[115] x 180.604m
attr unit m
par Aloha.host[115] y 176.516m
attr unit m
par Aloha.host[115] txrate 1000Bps
attr unit Bps
par Aloha.host[116] typename "\"Host\""
par Aloha.host[116] arrrate 1
par Aloha.host[116] packet_size 1B
attr unit B
par Aloha.host[116] x 49.9609m
attr unit m
par Aloha.host[116] y 113.616m
attr unit m
par Aloha.host[116] txrate 1000Bps
attr unit Bps
par Aloha.host[117] typename "\"Host\""
par Aloha.host[117] arrrate 1
par Aloha.host[117] packet_size 1B
attr unit B
par Aloha.host[117] x 104.297m
attr unit m
par Aloha.host[117] y 2.83913m
attr unit m
par Aloha.host[117] txrate 1000Bps
attr unit Bps
par Aloha.host[118] typename "\"Host\""
par Aloha.host[118] arrrate 1
par Aloha.host[118] packet_size 1B
attr unit B
par Aloha.host[118] x 101.149m
attr unit m
par Aloha.host[118] y 114.083m
attr unit m
par Aloha.host[118] txrate 1000Bps
attr unit Bps
par Aloha.host[119] typename "\"Host\""
par Aloha.host[119] arrrate 1
par Aloha.host[119] packet_size 1B
attr unit B
par Aloha.host[119] x 162.614m
attr unit m
par Aloha.host[119] y 168.989m
attr unit m
par Aloha.host[119] txrate 1000Bps
attr unit Bps
par Aloha.host[120] typename "\"Host\""
par Aloha.host[120] arrrate 1
par Aloha.host[120] packet_size 1B
attr unit B
par Aloha.host[120] x 14.6388m
attr unit m
par Aloha.host[120] y 15.2663m
attr unit m
par Aloha.host[120] txrate 1000Bps
attr unit Bps
par Aloha.host[121] typename "\"Host\""
par Aloha.host[121] arrrate 1
par Aloha.host[121] packet_size 1B
attr unit B
par Aloha.host[121] x 167.241m
attr unit m
par Aloha.host[121] y 155.531m
attr unit m
par Aloha.host[121] txrate 1000Bps
attr unit Bps
par Aloha.host[122] typename "\"Host\""
par Aloha.host[122] arrrate 1
par Aloha.host[122] packet_size 1B
attr unit B
par Aloha.host[122] x 160.847m
attr unit m
par Aloha.host[122] y 151.437m
attr unit m
par Aloha.host[122] txrate 1000Bps
attr unit Bps
par Aloha.host[123] typename "\"Host\""
par Aloha.host[123] arrrate 1
par Aloha.host[123] packet_size 1B
attr unit B
par Aloha.host[123] x 81.2643m
attr unit m
par Aloha.host[123] y 162.394m
attr unit m
par Aloha.host[123] txrate 1000Bps
attr unit Bps
par Aloha.host[124] typename "\"Host\""
par Aloha.host[124] arrrate 1
par Aloha.host[124] packet_size 1B
attr unit B
par Aloha.host[124] x 7.29025m
attr unit m
par Aloha.host[124] y 146.513m
attr unit m
par Aloha.host[124] txrate 1000Bps
attr unit Bps
par Aloha.host[125] typename "\"Host\""
par Aloha.host[125] arrrate 1
par Aloha.host[125] packet_size 1B
attr unit B
par Aloha.host[125] x 153.451m
attr unit m
par Aloha.host[125] y 6.76875m
attr unit m
par Aloha.host[125] txrate 1000Bps
attr unit Bps
par Aloha.host[126] typename "\"Host\""
par Aloha.host[126] arrrate 1
par Aloha.host[126] packet_size 1B
attr unit B
par Aloha.host[126] x 135.786m
attr unit m
par Aloha.host[126] y 158.37m
attr unit m
par Aloha.host[126] txrate 1000Bps
attr unit Bps
par Aloha.host[127] typename "\"Host\""
par Aloha.host[127] arrrate 1
par Aloha.host[127] packet_size 1B
attr unit B
par Aloha.host[127] x 183.786m
attr unit m
par Aloha.host[127] y 115.095m
attr unit m
par Aloha.host[127] txrate 1000Bps
attr unit Bps
par Aloha.host[128] typename "\"Host\""
par Aloha.host[128] arrrate 1
par Aloha.host[128] packet_size 1B
attr unit B
par Aloha.host[128] x 112.037m
attr unit m
par Aloha.host[128] y 96.7296m
attr unit m
par Aloha.host[128] txrate 1000Bps
attr unit Bps
par Aloha.host[129] typename "\"Host\""
par Aloha.host[129] arrrate 1
par Aloha.host[129] packet_size 1B
attr unit B
par Aloha.host[129] x 193.544m
attr unit m
par Aloha.host[129] y 23.3824m
attr unit m
par Aloha.host[129] txrate 1000Bps
attr unit Bps
par Aloha.host[130] typename "\"Host\""
par Aloha.host[130] arrrate 1
par Aloha.host[130] packet_size 1B
attr unit B
par Aloha.host[130] x 61.6769m
attr unit m
par Aloha.host[130] y 190.427m
attr unit m
par Aloha.host[130] txrate 1000Bps
attr unit Bps
par Aloha.host[131] typename "\"Host\""
par Aloha.host[131] arrrate 1
par Aloha.host[131] packet_size 1B
attr unit B
par Aloha.host[131] x 67.778m
attr unit m
par Aloha.host[131] y 58.7999m
attr unit m
par Aloha.host[131] txrate 1000Bps
attr unit Bps
par Aloha.host[132] typename "\"Host\""
par Aloha.host[132] arrrate 1
par Aloha.host[132] packet_size 1B
attr unit B
par Aloha.host[132] x 146.176m
attr unit m
par Aloha.host[132] y 33.7873m
attr unit m
par Aloha.host[132] txrate 1000Bps
attr unit Bps
par Aloha.host[133] typename "\"Host\""
par Aloha.host[133] arrrate 1
par Aloha.host[133] packet_size 1B
attr unit B
par Aloha.host[133] x 140.274m
attr unit m
par Aloha.host[133] y 52.4154m
attr unit m
par Aloha.host[133] txrate 1000Bps
attr unit Bps
par Aloha.host[134] typename "\"Host\""
par Aloha.host[134] arrrate 1
par Aloha.host[134] packet_size 1B
attr unit B
par Aloha.host[134] x 145.07m
attr unit m
par Aloha.host[134] y 60.0276m
attr unit m
par Aloha.host[134] txrate 1000Bps
attr unit Bps
par Aloha.host[135] typename "\"Host\""
par Aloha.host[135] arrrate 1
par Aloha.host[135] packet_size 1B
attr unit B
par Aloha.host[135] x 178.789m
attr unit m
par Aloha.host[135] y 14.1486m
attr unit m
par Aloha.host[135] txrate 1000Bps
attr unit Bps
par Aloha.host[136] typename "\"Host\""
par Aloha.host[136] arrrate 1
par Aloha.host[136] packet_size 1B
attr unit B
par Aloha.host[136] x 143.33m
attr unit m
par Aloha.host[136] y 56.6451m
attr unit m
par Aloha.host[136] txrate 1000Bps
attr unit Bps
par Aloha.host[137] typename "\"Host\""
par Aloha.host[137] arrrate 1
par Aloha.host[137] packet_size 1B
attr unit B
par Aloha.host[137] x 136.431m
attr unit m
par Aloha.host[137] y 192.262m
attr unit m
par Aloha.host[137] txrate 1000Bps
attr unit Bps
par Aloha.host[138] typename "\"Host\""
par Aloha.host[138] arrrate 1
par Aloha.host[138] packet_size 1B
attr unit B
par Aloha.host[138] x 168.623m
attr unit m
par Aloha.host[138] y 195.754m
attr unit m
par Aloha.host[138] txrate 1000Bps
attr unit Bps
par Aloha.host[139] typename "\"Host\""
par Aloha.host[139] arrrate 1
par Aloha.host[139] packet_size 1B
attr unit B
par Aloha.host[139] x 129.024m
attr unit m
par Aloha.host[139] y 53.5315m
attr unit m
par Aloha.host[139] txrate 1000Bps
attr unit Bps
par Aloha.host[140] typename "\"Host\""
par Aloha.host[140] arrrate 1
par Aloha.host[140] packet_size 1B
attr unit B
par Aloha.host[140] x 60.5398m
attr unit m
par Aloha.host[140] y 6.55363m
attr unit m
par Aloha.host[140] txrate 1000Bps
attr unit Bps
par Aloha.host[141] typename "\"Host\""
par Aloha.host[141] arrrate 1
par Aloha.host[141] packet_size 1B
attr unit B
par Aloha.host[141] x 165.756m
attr unit m
par Aloha.host[141] y 195.009m
attr unit m
par Aloha.host[141] txrate 1000Bps
attr unit Bps
par Aloha.host[142] typename "\"Host\""
par Aloha.host[142] arrrate 1
par Aloha.host[142] packet_size 1B
attr unit B
par Aloha.host[142] x 48.9439m
attr unit m
par Aloha.host[142] y 137.261m
attr unit m
par Aloha.host[142] txrate 1000Bps
attr unit Bps
par Aloha.host[143] typename "\"Host\""
par Aloha.host[143] arrrate 1
par Aloha.host[143] packet_size 1B
attr unit B
par Aloha.host[143] x 140.756m
attr unit m
par Aloha.host[143] y 124.743m
attr unit m
par Aloha.host[143] txrate 1000Bps
attr unit Bps
par Aloha.host[144] typename "\"Host\""
par Aloha.host[144] arrrate 1
par Aloha.host[144] packet_size 1B
attr unit B
par Aloha.host[144] x 107.178m
attr unit m
par Aloha.host[144] y 29.59m
attr unit m
par Aloha.host[144] txrate 1000Bps
attr unit Bps
par Aloha.host[145] typename "\"Host\""
par Aloha.host[145] arrrate 1
par Aloha.host[145] packet_size 1B
attr unit B
par Aloha.host[145] x 76.1619m
attr unit m
par Aloha.host[145] y 81.4398m
attr unit m
par Aloha.host[145] txrate 1000Bps
attr unit Bps
par Aloha.host[146] typename "\"Host\""
par Aloha.host[146] arrrate 1
par Aloha.host[146] packet_size 1B
attr unit B
par Aloha.host[146] x 35.7236m
attr unit m
par Aloha.host[146] y 87.4145m
attr unit m
par Aloha.host[146] txrate 1000Bps
attr unit Bps
par Aloha.host[147] typename "\"Host\""
par Aloha.host[147] arrrate 1
par Aloha.host[147] packet_size 1B
attr unit B
par Aloha.host[147] x 177.166m
attr unit m
par Aloha.host[147] y 67.5199m
attr unit m
par Aloha.host[147] txrate 1000Bps
attr unit Bps
par Aloha.host[148] typename "\"Host\""
par Aloha.host[148] arrrate 1
par Aloha.host[148] packet_size 1B
attr unit B
par Aloha.host[148] x 16.0467m
attr unit m
par Aloha.host[148] y 41.0062m
attr unit m
par Aloha.host[148] txrate 1000Bps
attr unit Bps
par Aloha.host[149] typename "\"Host\""
par Aloha.host[149] arrrate 1
par Aloha.host[149] packet_size 1B
attr unit B
par Aloha.host[149] x 160.718m
attr unit m
par Aloha.host[149] y 91.4139m
attr unit m
par Aloha.host[149] txrate 1000Bps
attr unit Bps
par Aloha.host[150] typename "\"Host\""
par Aloha.host[150] arrrate 1
par Aloha.host[150] packet_size 1B
attr unit B
par Aloha.host[150] x 136.694m
attr unit m
par Aloha.host[150] y 157.302m
attr unit m
par Aloha.host[150] txrate 1000Bps
attr unit Bps
par Aloha.host[151] typename "\"Host\""
par Aloha.host[151] arrrate 1
par Aloha.host[151] packet_size 1B
attr unit B
par Aloha.host[151] x 92.4021m
attr unit m
par Aloha.host[151] y 148.659m
attr unit m
par Aloha.host[151] txrate 1000Bps
attr unit Bps
par Aloha.host[152] typename "\"Host\""
par Aloha.host[152] arrrate 1
par Aloha.host[152] packet_size 1B
attr unit B
par Aloha.host[152] x 132.81m
attr unit m
par Aloha.host[152] y 118.639m
attr unit m
par Aloha.host[152] txrate 1000Bps
attr unit Bps
par Aloha.host[153] typename "\"Host\""
par Aloha.host[153] arrrate 1
par Aloha.host[153] packet_size 1B
attr unit B
par Aloha.host[153] x 56.5333m
attr unit m
par Aloha.host[153] y 101.515m
attr unit m
par Aloha.host[153] txrate 1000Bps
attr unit Bps
par Aloha.host[154] typename "\"Host\""
par Aloha.host[154] arrrate 1
par Aloha.host[154] packet_size 1B
attr unit B
par Aloha.host[154] x 172.315m
attr unit m
par Aloha.host[154] y 158.818m
attr unit m
par Aloha.host[154] txrate 1000Bps
attr unit Bps
par Aloha.host[155] typename "\"Host\""
par Aloha.host[155] arrrate 1
par Aloha.host[155] packet_size 1B
attr unit B
par Aloha.host[155] x 35.6959m
attr unit m
par Aloha.host[155] y 97.2744m
attr unit m
par Aloha.host[155] txrate 1000Bps
attr unit Bps
par Aloha.host[156] typename "\"Host\""
par Aloha.host[156] arrrate 1
par Aloha.host[156] packet_size 1B
attr unit B
par Aloha.host[156] x 115.942m
attr unit m
par Aloha.host[156] y 0.528739m
attr unit m
par Aloha.host[156] txrate 1000Bps
attr unit Bps
par Aloha.host[157] typename "\"Host\""
par Aloha.host[157] arrrate 1
par Aloha.host[157] packet_size 1B
attr unit B
par Aloha.host[157] x 92.7269m
attr unit m
par Aloha.host[157] y 87.5247m
attr unit m
par Aloha.host[157] txrate 1000Bps
attr unit Bps
par Aloha.host[158] typename "\"Host\""
par Aloha.host[158] arrrate 1
par Aloha.host[158] packet_size 1B
attr unit B
par Aloha.host[158] x 134.644m
attr unit m
par Aloha.host[158] y 4.45607m
attr unit m
par Aloha.host[158] txrate 1000Bps
attr unit Bps
par Aloha.host[159] typename "\"Host\""
par Aloha.host[159] arrrate 1
par Aloha.host[159] packet_size 1B
attr unit B
par Aloha.host[159] x 95.2249m
attr unit m
par Aloha.host[159] y 103.263m
attr unit m
par Aloha.host[159] txrate 1000Bps
attr unit Bps
par Aloha.host[160] typename "\"Host\""
par Aloha.host[160] arrrate 1
par Aloha.host[160] packet_size 1B
attr unit B
par Aloha.host[160] x 190.502m
attr unit m
par Aloha.host[160] y 183.732m
attr unit m
par Aloha.host[160] txrate 1000Bps
attr unit Bps
par Aloha.host[161] typename "\"Host\""
par Aloha.host[161] arrrate 1
par Aloha.host[161] packet_size 1B
attr unit B
par Aloha.host[161] x 170.652m
attr unit m
par Aloha.host[161] y 110.625m
attr unit m
par Aloha.host[161] txrate 1000Bps
attr unit Bps
par Aloha.host[162] typename "\"Host\""
par Aloha.host[162] arrrate 1
par Aloha.host[162] packet_size 1B
attr unit B
par Aloha.host[162] x 179.701m
attr unit m
par Aloha.host[162] y 71.0603m
attr unit m
par Aloha.host[162] txrate 1000Bps
attr unit Bps
par Aloha.host[163] typename "\"Host\""
par Aloha.host[163] arrrate 1
par Aloha.host[163] packet_size 1B
attr unit B
par Aloha.host[163] x 5.11382m
attr unit m
par Aloha.host[163] y 191.253m
attr unit m
par Aloha.host[163] txrate 1000Bps
attr unit Bps
par Aloha.host[164] typename "\"Host\""
par Aloha.host[164] arrrate 1
par Aloha.host[164] packet_size 1B
attr unit B
par Aloha.host[164] x 31.2846m
attr unit m
par Aloha.host[164] y 107.511m
attr unit m
par Aloha.host[164] txrate 1000Bps
attr unit Bps
par Aloha.host[165] typename "\"Host\""
par Aloha.host[165] arrrate 1
par Aloha.host[165] packet_size 1B
attr unit B
par Aloha.host[165] x 95.3796m
attr unit m
par Aloha.host[165] y 40.7414m
attr unit m
par Aloha.host[165] txrate 1000Bps
attr unit Bps
par Aloha.host[166] typename "\"Host\""
par Aloha.host[166] arrrate 1
par Aloha.host[166] packet_size 1B
attr unit B
par Aloha.host[166] x 146.944m
attr unit m
par Aloha.host[166] y 42.5573m
attr unit m
par Aloha.host[166] txrate 1000Bps
attr unit Bps
par Aloha.host[167] typename "\"Host\""
par Aloha.host[167] arrrate 1
par Aloha.host[167] packet_size 1B
attr unit B
par Aloha.host[167] x 71.2619m
attr unit m
par Aloha.host[167] y 102.285m
attr unit m
par Aloha.host[167] txrate 1000Bps
attr unit Bps
par Aloha.host[168] typename "\"Host\""
par Aloha.host[168] arrrate 1
par Aloha.host[168] packet_size 1B
attr unit B
par Aloha.host[168] x 112.891m
attr unit m
par Aloha.host[168] y 27.8636m
attr unit m
par Aloha.host[168] txrate 1000Bps
attr unit Bps
par Aloha.host[169] typename "\"Host\""
par Aloha.host[169] arrrate 1
par Aloha.host[169] packet_size 1B
attr unit B
par Aloha.host[169] x 9.0939m
attr unit m
par Aloha.host[169] y 147.075m
attr unit m
par Aloha.host[169] txrate 1000Bps
attr unit Bps
par Aloha.host[170] typename "\"Host\""
par Aloha.host[170] arrrate 1
par Aloha.host[170] packet_size 1B
attr unit B
par Aloha.host[170] x 128.088m
attr unit m
par Aloha.host[170] y 190.987m
attr unit m
par Aloha.host[170] txrate 1000Bps
attr unit Bps
par Aloha.host[171] typename "\"Host\""
par Aloha.host[171] arrrate 1
par Aloha.host[171] packet_size 1B
attr unit B
par Aloha.host[171] x 136.241m
attr unit m
par Aloha.host[171] y 146.226m
attr unit m
par Aloha.host[171] txrate 1000Bps
attr unit Bps
par Aloha.host[172] typename "\"Host\""
par Aloha.host[172] arrrate 1
par Aloha.host[172] packet_size 1B
attr unit B
par Aloha.host[172] x 79.1275m
attr unit m
par Aloha.host[172] y 4.19708m
attr unit m
par Aloha.host[172] txrate 1000Bps
attr unit Bps
par Aloha.host[173] typename "\"Host\""
par Aloha.host[173] arrrate 1
par Aloha.host[173] packet_size 1B
attr unit B
par Aloha.host[173] x 27.3346m
attr unit m
par Aloha.host[173] y 185.303m
attr unit m
par Aloha.host[173] txrate 1000Bps
attr unit Bps
par Aloha.host[174] typename "\"Host\""
par Aloha.host[174] arrrate 1
par Aloha.host[174] packet_size 1B
attr unit B
par Aloha.host[174] x 83.2916m
attr unit m
par Aloha.host[174] y 60.5692m
attr unit m
par Aloha.host[174] txrate 1000Bps
attr unit Bps
par Aloha.host[175] typename "\"Host\""
par Aloha.host[175] arrrate 1
par Aloha.host[175] packet_size 1B
attr unit B
par Aloha.host[175] x 147.693m
attr unit m
par Aloha.host[175] y 162.582m
attr unit m
par Aloha.host[175] txrate 1000Bps
attr unit Bps
par Aloha.host[176] typename "\"Host\""
par Aloha.host[176] arrrate 1
par Aloha.host[176] packet_size 1B
attr unit B
par Aloha.host[176] x 116.862m
attr unit m
par Aloha.host[176] y 64.8686m
attr unit m
par Aloha.host[176] txrate 1000Bps
attr unit Bps
par Aloha.host[177] typename "\"Host\""
par Aloha.host[177] arrrate 1
par Aloha.host[177] packet_size 1B
attr unit B
par Aloha.host[177] x 176.687m
attr unit m
par Aloha.host[177] y 88.967m
attr unit m
par Aloha.host[177] txrate 1000Bps
attr unit Bps
par Aloha.host[178] typename "\"Host\""
par Aloha.host[178] arrrate 1
par Aloha.host[178] packet_size 1B
attr unit B
par Aloha.host[178] x 115.75m
attr unit m
par Aloha.host[178] y 182.466m
attr unit m
par Aloha.host[178] txrate 1000Bps
attr unit Bps
par Aloha.host[179] typename "\"Host\""
par Aloha.host[179] arrrate 1
par Aloha.host[179] packet_size 1B
attr unit B
par Aloha.host[179] x 35.5941m
attr unit m
par Aloha.host[179] y 166.299m
attr unit m
par Aloha.host[179] txrate 1000Bps
attr unit Bps
par Aloha.host[180] typename "\"Host\""
par Aloha.host[180] arrrate 1
par Aloha.host[180] packet_size 1B
attr unit B
par Aloha.host[180] x 118.35m
attr unit m
par Aloha.host[180] y 156.738m
attr unit m
par Aloha.host[180] txrate 1000Bps
attr unit Bps
par Aloha.host[181] typename "\"Host\""
par Aloha.host[181] arrrate 1
par Aloha.host[181] packet_size 1B
attr unit B
par Aloha.host[181] x 10.7755m
attr unit m
par Aloha.host[181] y 69.2016m
attr unit m
par Aloha.host[181] txrate 1000Bps
attr unit Bps
par Aloha.host[182] typename "\"Host\""
par Aloha.host[182] arrrate 1
par Aloha.host[182] packet_size 1B
attr unit B
par Aloha.host[182] x 148.683m
attr unit m
par Aloha.host[182] y 132.027m
attr unit m
par Aloha.host[182] txrate 1000Bps
attr unit Bps
par Aloha.host[183] typename "\"Host\""
par Aloha.host[183] arrrate 1
par Aloha.host[183] packet_size 1B
attr unit B
par Aloha.host[183] x 40.2075m
attr unit m
par Aloha.host[183] y 33.2214m
attr unit m
par Aloha.host[183] txrate 1000Bps
attr unit Bps
par Aloha.host[184] typename "\"Host\""
par Aloha.host[184] arrrate 1
par Aloha.host[184] packet_size 1B
attr unit B
par Aloha.host[184] x 180.935m
attr unit m
par Aloha.host[184] y 8.84419m
attr unit m
par Aloha.host[184] txrate 1000Bps
attr unit Bps
par Aloha.host[185] typename "\"Host\""
par Aloha.host[185] arrrate 1
par Aloha.host[185] packet_size 1B
attr unit B
par Aloha.host[185] x 94.7136m
attr unit m
par Aloha.host[185] y 187.949m
attr unit m
par Aloha.host[185] txrate 1000Bps
attr unit Bps
par Aloha.host[186] typename "\"Host\""
par Aloha.host[186] arrrate 1
par Aloha.host[186] packet_size 1B
attr unit B
par Aloha.host[186] x 88.3306m
attr unit m
par Aloha.host[186] y 188.409m
attr unit m
par Aloha.host[186] txrate 1000Bps
attr unit Bps
par Aloha.host[187] typename "\"Host\""
par Aloha.host[187] arrrate 1
par Aloha.host[187] packet_size 1B
attr unit B
par Aloha.host[187] x 27.2159m
attr unit m
par Aloha.host[187] y 88.7088m
attr unit m
par Aloha.host[187] txrate 1000Bps
attr unit Bps
par Aloha.host[188] typename "\"Host\""
par Aloha.host[188] arrrate 1
par Aloha.host[188] packet_size 1B
attr unit B
par Aloha.host[188] x 161.539m
attr unit m
par Aloha.host[188] y 3.77408m
attr unit m
par Aloha.host[188] txrate 1000Bps
attr unit Bps
par Aloha.host[189] typename "\"Host\""
par Aloha.host[189] arrrate 1
par Aloha.host[189] packet_size 1B
attr unit B
par Aloha.host[189] x 183.406m
attr unit m
par Aloha.host[189] y 67.9713m
attr unit m
par Aloha.host[189] txrate 1000Bps
attr unit Bps
par Aloha.host[190] typename "\"Host\""
par Aloha.host[190] arrrate 1
par Aloha.host[190] packet_size 1B
attr unit B
par Aloha.host[190] x 138.918m
attr unit m
par Aloha.host[190] y 59.7683m
attr unit m
par Aloha.host[190] txrate 1000Bps
attr unit Bps
par Aloha.host[191] typename "\"Host\""
par Aloha.host[191] arrrate 1
par Aloha.host[191] packet_size 1B
attr unit B
par Aloha.host[191] x 133.509m
attr unit m
par Aloha.host[191] y 123.197m
attr unit m
par Aloha.host[191] txrate 1000Bps
attr unit Bps
par Aloha.host[192] typename "\"Host\""
par Aloha.host[192] arrrate 1
par Aloha.host[192] packet_size 1B
attr unit B
par Aloha.host[192] x 141.324m
attr unit m
par Aloha.host[192] y 192.784m
attr unit m
par Aloha.host[192] txrate 1000Bps
attr unit Bps
par Aloha.host[193] typename "\"Host\""
par Aloha.host[193] arrrate 1
par Aloha.host[193] packet_size 1B
attr unit B
par Aloha.host[193] x 148.963m
attr unit m
par Aloha.host[193] y 68.8548m
attr unit m
par Aloha.host[193] txrate 1000Bps
attr unit Bps
par Aloha.host[194] typename "\"Host\""
par Aloha.host[194] arrrate 1
par Aloha.host[194] packet_size 1B
attr unit B
par Aloha.host[194] x 142.919m
attr unit m
par Aloha.host[194] y 137.261m
attr unit m
par Aloha.host[194] txrate 1000Bps
attr unit Bps
par Aloha.host[195] typename "\"Host\""
par Aloha.host[195] arrrate 1
par Aloha.host[195] packet_size 1B
attr unit B
par Aloha.host[195] x 28.5925m
attr unit m
par Aloha.host[195] y 34.1051m
attr unit m
par Aloha.host[195] txrate 1000Bps
attr unit Bps
par Aloha.host[196] typename "\"Host\""
par Aloha.host[196] arrrate 1
par Aloha.host[196] packet_size 1B
attr unit B
par Aloha.host[196] x 133.272m
attr unit m
par Aloha.host[196] y 159.221m
attr unit m
par Aloha.host[196] txrate 1000Bps
attr unit Bps
par Aloha.host[197] typename "\"Host\""
par Aloha.host[197] arrrate 1
par Aloha.host[197] packet_size 1B
attr unit B
par Aloha.host[197] x 182.071m
attr unit m
par Aloha.host[197] y 196.798m
attr unit m
par Aloha.host[197] txrate 1000Bps
attr unit Bps
par Aloha.host[198] typename "\"Host\""
par Aloha.host[198] arrrate 1
par Aloha.host[198] packet_size 1B
attr unit B
par Aloha.host[198] x 6.48499m
attr unit m
par Aloha.host[198] y 61.8044m
attr unit m
par Aloha.host[198] txrate 1000Bps
attr unit Bps
par Aloha.host[199] typename "\"Host\""
par Aloha.host[199] arrrate 1
par Aloha.host[199] packet_size 1B
attr unit B
par Aloha.host[199] x 36.9629m
attr unit m
par Aloha.host[199] y 98.2984m
attr unit m
par Aloha.host[199] txrate 1000Bps
attr unit Bps
par Aloha.host[200] typename "\"Host\""
par Aloha.host[200] arrrate 1
par Aloha.host[200] packet_size 1B
attr unit B
par Aloha.host[200] x 152.47m
attr unit m
par Aloha.host[200] y 140.535m
attr unit m
par Aloha.host[200] txrate 1000Bps
attr unit Bps
par Aloha.host[201] typename "\"Host\""
par Aloha.host[201] arrrate 1
par Aloha.host[201] packet_size 1B
attr unit B
par Aloha.host[201] x 8.37335m
attr unit m
par Aloha.host[201] y 6.00457m
attr unit m
par Aloha.host[201] txrate 1000Bps
attr unit Bps
par Aloha.host[202] typename "\"Host\""
par Aloha.host[202] arrrate 1
par Aloha.host[202] packet_size 1B
attr unit B
par Aloha.host[202] x 55.7973m
attr unit m
par Aloha.host[202] y 110.569m
attr unit m
par Aloha.host[202] txrate 1000Bps
attr unit Bps
par Aloha.host[203] typename "\"Host\""
par Aloha.host[203] arrrate 1
par Aloha.host[203] packet_size 1B
attr unit B
par Aloha.host[203] x 171.592m
attr unit m
par Aloha.host[203] y 90.3946m
attr unit m
par Aloha.host[203] txrate 1000Bps
attr unit Bps
par Aloha.host[204] typename "\"Host\""
par Aloha.host[204] arrrate 1
par Aloha.host[204] packet_size 1B
attr unit B
par Aloha.host[204] x 73.808m
attr unit m
par Aloha.host[204] y 173.413m
attr unit m
par Aloha.host[204] txrate 1000Bps
attr unit Bps
par Aloha.host[205] typename "\"Host\""
par Aloha.host[205] arrrate 1
par Aloha.host[205] packet_size 1B
attr unit B
par Aloha.host[205] x 179.798m
attr unit m
par Aloha.host[205] y 0.0683206m
attr unit m
par Aloha.host[205] txrate 1000Bps
attr unit Bps
par Aloha.host[206] typename "\"Host\""
par Aloha.host[206] arrrate 1
par Aloha.host[206] packet_size 1B
attr unit B
par Aloha.host[206] x 57.8196m
attr unit m
par Aloha.host[206] y 16.0875m
attr unit m
par Aloha.host[206] txrate 1000Bps
attr unit Bps
par Aloha.host[207] typename "\"Host\""
par Aloha.host[207] arrrate 1
par Aloha.host[207] packet_size 1B
attr unit B
par Aloha.host[207] x 76.0647m
attr unit m
par Aloha.host[207] y 103.382m
attr unit m
par Aloha.host[207] txrate 1000Bps
attr unit Bps
par Aloha.host[208] typename "\"Host\""
par Aloha.host[208] arrrate 1
par Aloha.host[208] packet_size 1B
attr unit B
par Aloha.host[208] x 21.8747m
attr unit m
par Aloha.host[208] y 54.0204m
attr unit m
par Aloha.host[208] txrate 1000Bps
attr unit Bps
par Aloha.host[209] typename "\"Host\""
par Aloha.host[209] arrrate 1
par Aloha.host[209] packet_size 1B
attr unit B
par Aloha.host[209] x 162.925m
attr unit m
par Aloha.host[209] y 97.3503m
attr unit m
par Aloha.host[209] txrate 1000Bps
attr unit Bps
par Aloha.host[210] typename "\"Host\""
par Aloha.host[210] arrrate 1
par Aloha.host[210] packet_size 1B
attr unit B
par Aloha.host[210] x 186.697m
attr unit m
par Aloha.host[210] y 34.3355m
attr unit m
par Aloha.host[210] txrate 1000Bps
attr unit Bps
par Aloha.host[211] typename "\"Host\""
par Aloha.host[211] arrrate 1
par Aloha.host[211] packet_size 1B
attr unit B
par Aloha.host[211] x 36.6214m
attr unit m
par Aloha.host[211] y 184.341m
attr unit m
par Aloha.host[211] txrate 1000Bps
attr unit Bps
par Aloha.host[212] typename "\"Host\""
par Aloha.host[212] arrrate 1
par Aloha.host[212] packet_size 1B
attr unit B
par Aloha.host[212] x 62.2397m
attr unit m
par Aloha.host[212] y 119.787m
attr unit m
par Aloha.host[212] txrate 1000Bps
attr unit Bps
par Aloha.host[213] typename "\"Host\""
par Aloha.host[213] arrrate 1
par Aloha.host[213] packet_size 1B
attr unit B
par Aloha.host[213] x 134.941m
attr unit m
par Aloha.host[213] y 152.116m
attr unit m
par Aloha.host[213] txrate 1000Bps
attr unit Bps
par Aloha.host[214] typename "\"Host\""
par Aloha.host[214] arrrate 1
par Aloha.host[214] packet_size 1B
attr unit B
par Aloha.host[214] x 15.8202m
attr unit m
par Aloha.host[214] y 32.667m
attr unit m
par Aloha.host[214] txrate 1000Bps
attr unit Bps
par Aloha.host[215] typename "\"Host\""
par Aloha.host[215] arrrate 1
par Aloha.host[215] packet_size 1B
attr unit B
par Aloha.host[215] x 6.5448m
attr unit m
par Aloha.host[215] y 33.2368m
attr unit m
par Aloha.host[215] txrate 1000Bps
attr unit Bps
par Aloha.host[216] typename "\"Host\""
par Aloha.host[216] arrrate 1
par Aloha.host[216] packet_size 1B
attr unit B
par Aloha.host[216] x 65.3151m
attr unit m
par Aloha.host[216] y 115.194m
attr unit m
par Aloha.host[216] txrate 1000Bps
attr unit Bps
par Aloha.host[217] typename "\"Host\""
par Aloha.host[217] arrrate 1
par Aloha.host[217] packet_size 1B
attr unit B
par Aloha.host[217] x 77.3224m
attr unit m
par Aloha.host[217] y 67.6568m
attr unit m
par Aloha.host[217] txrate 1000Bps
attr unit Bps
par Aloha.host[218] typename "\"Host\""
par Aloha.host[218] arrrate 1
par Aloha.host[218] packet_size 1B
attr unit B
par Aloha.host[218] x 109.793m
attr unit m
par Aloha.host[218] y 161.091m
attr unit m
par Aloha.host[218] txrate 1000Bps
attr unit Bps
par Aloha.host[219] typename "\"Host\""
par Aloha.host[219] arrrate 1
par Aloha.host[219] packet_size 1B
attr unit B
par Aloha.host[219] x 110.586m
attr unit m
par Aloha.host[219] y 141.141m
attr unit m
par Aloha.host[219] txrate 1000Bps
attr unit Bps
par Aloha.host[220] typename "\"Host\""
par Aloha.host[220] arrrate 1
par Aloha.host[220] packet_size 1B
attr unit B
par Aloha.host[220] x 66.0254m
attr unit m
par Aloha.host[220] y 41.2758m
attr unit m
par Aloha.host[220] txrate 1000Bps
attr unit Bps
par Aloha.host[221] typename "\"Host\""
par Aloha.host[221] arrrate 1
par Aloha.host[221] packet_size 1B
attr unit B
par Aloha.host[221] x 85.1302m
attr unit m
par Aloha.host[221] y 145.283m
attr unit m
par Aloha.host[221] txrate 1000Bps
attr unit Bps
par Aloha.host[222] typename "\"Host\""
par Aloha.host[222] arrrate 1
par Aloha.host[222] packet_size 1B
attr unit B
par Aloha.host[222] x 50.3714m
attr unit m
par Aloha.host[222] y 80.3349m
attr unit m
par Aloha.host[222] txrate 1000Bps
attr unit Bps
par Aloha.host[223] typename "\"Host\""
par Aloha.host[223] arrrate 1
par Aloha.host[223] packet_size 1B
attr unit B
par Aloha.host[223] x 40.527m
attr unit m
par Aloha.host[223] y 14.2051m
attr unit m
par Aloha.host[223] txrate 1000Bps
attr unit Bps
par Aloha.host[224] typename "\"Host\""
par Aloha.host[224] arrrate 1
par Aloha.host[224] packet_size 1B
attr unit B
par Aloha.host[224] x 155.505m
attr unit m
par Aloha.host[224] y 165.148m
attr unit m
par Aloha.host[224] txrate 1000Bps
attr unit Bps
par Aloha.host[225] typename "\"Host\""
par Aloha.host[225] arrrate 1
par Aloha.host[225] packet_size 1B
attr unit B
par Aloha.host[225] x 27.9186m
attr unit m
par Aloha.host[225] y 22.831m
attr unit m
par Aloha.host[225] txrate 1000Bps
attr unit Bps
par Aloha.host[226] typename "\"Host\""
par Aloha.host[226] arrrate 1
par Aloha.host[226] packet_size 1B
attr unit B
par Aloha.host[226] x 90.2407m
attr unit m
par Aloha.host[226] y 55.9571m
attr unit m
par Aloha.host[226] txrate 1000Bps
attr unit Bps
par Aloha.host[227] typename "\"Host\""
par Aloha.host[227] arrrate 1
par Aloha.host[227] packet_size 1B
attr unit B
par Aloha.host[227] x 24.5045m
attr unit m
par Aloha.host[227] y 50.0373m
attr unit m
par Aloha.host[227] txrate 1000Bps
attr unit Bps
par Aloha.host[228] typename "\"Host\""
par Aloha.host[228] arrrate 1
par Aloha.host[228] packet_size 1B
attr unit B
par Aloha.host[228] x 163.257m
attr unit m
par Aloha.host[228] y 19.8589m
attr unit m
par Aloha.host[228] txrate 1000Bps
attr unit Bps
par Aloha.host[229] typename "\"Host\""
par Aloha.host[229] arrrate 1
par Aloha.host[229] packet_size 1B
attr unit B
par Aloha.host[229] x 168.698m
attr unit m
par Aloha.host[229] y 166.255m
attr unit m
par Aloha.host[229] txrate 1000Bps
attr unit Bps
par Aloha.host[230] typename "\"Host\""
par Aloha.host[230] arrrate 1
par Aloha.host[230] packet_size 1B
attr unit B
par Aloha.host[230] x 22.955m
attr unit m
par Aloha.host[230] y 85.7636m
attr unit m
par Aloha.host[230] txrate 1000Bps
attr unit Bps
par Aloha.host[231] typename "\"Host\""
par Aloha.host[231] arrrate 1
par Aloha.host[231] packet_size 1B
attr unit B
par Aloha.host[231] x 144.196m
attr unit m
par Aloha.host[231] y 186.422m
attr unit m
par Aloha.host[231] txrate 1000Bps
attr unit Bps
par Aloha.host[232] typename "\"Host\""
par Aloha.host[232] arrrate 1
par Aloha.host[232] packet_size 1B
attr unit B
par Aloha.host[232] x 184.663m
attr unit m
par Aloha.host[232] y 43.8451m
attr unit m
par Aloha.host[232] txrate 1000Bps
attr unit Bps
par Aloha.host[233] typename "\"Host\""
par Aloha.host[233] arrrate 1
par Aloha.host[233] packet_size 1B
attr unit B
par Aloha.host[233] x 77.2062m
attr unit m
par Aloha.host[233] y 130.251m
attr unit m
par Aloha.host[233] txrate 1000Bps
attr unit Bps
par Aloha.host[234] typename "\"Host\""
par Aloha.host[234] arrrate 1
par Aloha.host[234] packet_size 1B
attr unit B
par Aloha.host[234] x 155.423m
attr unit m
par Aloha.host[234] y 38.061m
attr unit m
par Aloha.host[234] txrate 1000Bps
attr unit Bps
par Aloha.host[235] typename "\"Host\""
par Aloha.host[235] arrrate 1
par Aloha.host[235] packet_size 1B
attr unit B
par Aloha.host[235] x 184.777m
attr unit m
par Aloha.host[235] y 40.9002m
attr unit m
par Aloha.host[235] txrate 1000Bps
attr unit Bps
par Aloha.host[236] typename "\"Host\""
par Aloha.host[236] arrrate 1
par Aloha.host[236] packet_size 1B
attr unit B
par Aloha.host[236] x 0.990281m
attr unit m
par Aloha.host[236] y 194.522m
attr unit m
par Aloha.host[236] txrate 1000Bps
attr unit Bps
par Aloha.host[237] typename "\"Host\""
par Aloha.host[237] arrrate 1
par Aloha.host[237] packet_size 1B
attr unit B
par Aloha.host[237] x 54.5168m
attr unit m
par Aloha.host[237] y 33.8839m
attr unit m
par Aloha.host[237] txrate 1000Bps
attr unit Bps
par Aloha.host[238] typename "\"Host\""
par Aloha.host[238] arrrate 1
par Aloha.host[238] packet_size 1B
attr unit B
par Aloha.host[238] x 7.30382m
attr unit m
par Aloha.host[238] y 136.309m
attr unit m
par Aloha.host[238] txrate 1000Bps
attr unit Bps
par Aloha.host[239] typename "\"Host\""
par Aloha.host[239] arrrate 1
par Aloha.host[239] packet_size 1B
attr unit B
par Aloha.host[239] x 39.8384m
attr unit m
par Aloha.host[239] y 155.184m
attr unit m
par Aloha.host[239] txrate 1000Bps
attr unit Bps
par Aloha.host[240] typename "\"Host\""
par Aloha.host[240] arrrate 1
par Aloha.host[240] packet_size 1B
attr unit B
par Aloha.host[240] x 2.24157m
attr unit m
par Aloha.host[240] y 134.079m
attr unit m
par Aloha.host[240] txrate 1000Bps
attr unit Bps
par Aloha.host[241] typename "\"Host\""
par Aloha.host[241] arrrate 1
par Aloha.host[241] packet_size 1B
attr unit B
par Aloha.host[241] x 9.77991m
attr unit m
par Aloha.host[241] y 53.0158m
attr unit m
par Aloha.host[241] txrate 1000Bps
attr unit Bps
par Aloha.host[242] typename "\"Host\""
par Aloha.host[242] arrrate 1
par Aloha.host[242] packet_size 1B
attr unit B
par Aloha.host[242] x 129.869m
attr unit m
par Aloha.host[242] y 68.1345m
attr unit m
par Aloha.host[242] txrate 1000Bps
attr unit Bps
par Aloha.host[243] typename "\"Host\""
par Aloha.host[243] arrrate 1
par Aloha.host[243] packet_size 1B
attr unit B
par Aloha.host[243] x 57.7447m
attr unit m
par Aloha.host[243] y 165.373m
attr unit m
par Aloha.host[243] txrate 1000Bps
attr unit Bps
par Aloha.host[244] typename "\"Host\""
par Aloha.host[244] arrrate 1
par Aloha.host[244] packet_size 1B
attr unit B
par Aloha.host[244] x 168.882m
attr unit m
par Aloha.host[244] y 10.9377m
attr unit m
par Aloha.host[244] txrate 1000Bps
attr unit Bps
par Aloha.host[245] typename "\"Host\""
par Aloha.host[245] arrrate 1
par Aloha.host[245] packet_size 1B
attr unit B
par Aloha.host[245] x 66.6594m
attr unit m
par Aloha.host[245] y 81.8091m
attr unit m
par Aloha.host[245] txrate 1000Bps
attr unit Bps
par Aloha.host[246] typename "\"Host\""
par Aloha.host[246] arrrate 1
par Aloha.host[246] packet_size 1B
attr unit B
par Aloha.host[246] x 184.261m
attr unit m
par Aloha.host[246] y 129.212m
attr unit m
par Aloha.host[246] txrate 1000Bps
attr unit Bps
par Aloha.host[247] typename "\"Host\""
par Aloha.host[247] arrrate 1
par Aloha.host[247] packet_size 1B
attr unit B
par Aloha.host[247] x 26.2773m
attr unit m
par Aloha.host[247] y 193.239m
attr unit m
par Aloha.host[247] txrate 1000Bps
attr unit Bps
par Aloha.host[248] typename "\"Host\""
par Aloha.host[248] arrrate 1
par Aloha.host[248] packet_size 1B
attr unit B
par Aloha.host[248] x 109.801m
attr unit m
par Aloha.host[248] y 37.1752m
attr unit m
par Aloha.host[248] txrate 1000Bps
attr unit Bps
par Aloha.host[249] typename "\"Host\""
par Aloha.host[249] arrrate 1
par Aloha.host[249] packet_size 1B
attr unit B
par Aloha.host[249] x 58.8869m
attr unit m
par Aloha.host[249] y 163.814m
attr unit m
par Aloha.host[249] txrate 1000Bps
attr unit Bps
par Aloha.host[250] typename "\"Host\""
par Aloha.host[250] arrrate 1
par Aloha.host[250] packet_size 1B
attr unit B
par Aloha.host[250] x 161.231m
attr unit m
par Aloha.host[250] y 34.1549m
attr unit m
par Aloha.host[250] txrate 1000Bps
attr unit Bps
par Aloha.host[251] typename "\"Host\""
par Aloha.host[251] arrrate 1
par Aloha.host[251] packet_size 1B
attr unit B
par Aloha.host[251] x 67.5353m
attr unit m
par Aloha.host[251] y 114.341m
attr unit m
par Aloha.host[251] txrate 1000Bps
attr unit Bps
par Aloha.host[252] typename "\"Host\""
par Aloha.host[252] arrrate 1
par Aloha.host[252] packet_size 1B
attr unit B
par Aloha.host[252] x 24.2059m
attr unit m
par Aloha.host[252] y 35.4293m
attr unit m
par Aloha.host[252] txrate 1000Bps
attr unit Bps
par Aloha.host[253] typename "\"Host\""
par Aloha.host[253] arrrate 1
par Aloha.host[253] packet_size 1B
attr unit B
par Aloha.host[253] x 91.1195m
attr unit m
par Aloha.host[253] y 43.0693m
attr unit m
par Aloha.host[253] txrate 1000Bps
attr unit Bps
par Aloha.host[254] typename "\"Host\""
par Aloha.host[254] arrrate 1
par Aloha.host[254] packet_size 1B
attr unit B
par Aloha.host[254] x 49.9763m
attr unit m
par Aloha.host[254] y 107.87m
attr unit m
par Aloha.host[254] txrate 1000Bps
attr unit Bps
par Aloha.host[255] typename "\"Host\""
par Aloha.host[255] arrrate 1
par Aloha.host[255] packet_size 1B
attr unit B
par Aloha.host[255] x 149.047m
attr unit m
par Aloha.host[255] y 24.5744m
attr unit m
par Aloha.host[255] txrate 1000Bps
attr unit Bps
par Aloha.host[256] typename "\"Host\""
par Aloha.host[256] arrrate 1
par Aloha.host[256] packet_size 1B
attr unit B
par Aloha.host[256] x 147.184m
attr unit m
par Aloha.host[256] y 139.261m
attr unit m
par Aloha.host[256] txrate 1000Bps
attr unit Bps
par Aloha.host[257] typename "\"Host\""
par Aloha.host[257] arrrate 1
par Aloha.host[257] packet_size 1B
attr unit B
par Aloha.host[257] x 2.04097m
attr unit m
par Aloha.host[257] y 135.254m
attr unit m
par Aloha.host[257] txrate 1000Bps
attr unit Bps
par Aloha.host[258] typename "\"Host\""
par Aloha.host[258] arrrate 1
par Aloha.host[258] packet_size 1B
attr unit B
par Aloha.host[258] x 0.598394m
attr unit m
par Aloha.host[258] y 71.1276m
attr unit m
par Aloha.host[258] txrate 1000Bps
attr unit Bps
par Aloha.host[259] typename "\"Host\""
par Aloha.host[259] arrrate 1
par Aloha.host[259] packet_size 1B
attr unit B
par Aloha.host[259] x 183.601m
attr unit m
par Aloha.host[259] y 135.072m
attr unit m
par Aloha.host[259] txrate 1000Bps
attr unit Bps
par Aloha.host[260] typename "\"Host\""
par Aloha.host[260] arrrate 1
par Aloha.host[260] packet_size 1B
attr unit B
par Aloha.host[260] x 64.575m
attr unit m
par Aloha.host[260] y 18.3694m
attr unit m
par Aloha.host[260] txrate 1000Bps
attr unit Bps
par Aloha.host[261] typename "\"Host\""
par Aloha.host[261] arrrate 1
par Aloha.host[261] packet_size 1B
attr unit B
par Aloha.host[261] x 59.2758m
attr unit m
par Aloha.host[261] y 25.3245m
attr unit m
par Aloha.host[261] txrate 1000Bps
attr unit Bps
par Aloha.host[262] typename "\"Host\""
par Aloha.host[262] arrrate 1
par Aloha.host[262] packet_size 1B
attr unit B
par Aloha.host[262] x 54.1852m
attr unit m
par Aloha.host[262] y 196.909m
attr unit m
par Aloha.host[262] txrate 1000Bps
attr unit Bps
par Aloha.host[263] typename "\"Host\""
par Aloha.host[263] arrrate 1
par Aloha.host[263] packet_size 1B
attr unit B
par Aloha.host[263] x 49.1448m
attr unit m
par Aloha.host[263] y 105.603m
attr unit m
par Aloha.host[263] txrate 1000Bps
attr unit Bps
par Aloha.host[264] typename "\"Host\""
par Aloha.host[264] arrrate 1
par Aloha.host[264] packet_size 1B
attr unit B
par Aloha.host[264] x 155.074m
attr unit m
par Aloha.host[264] y 53.9263m
attr unit m
par Aloha.host[264] txrate 1000Bps
attr unit Bps
par Aloha.host[265] typename "\"Host\""
par Aloha.host[265] arrrate 1
par Aloha.host[265] packet_size 1B
attr unit B
par Aloha.host[265] x 52.6477m
attr unit m
par Aloha.host[265] y 140.095m
attr unit m
par Aloha.host[265] txrate 1000Bps
attr unit Bps
par Aloha.host[266] typename "\"Host\""
par Aloha.host[266] arrrate 1
par Aloha.host[266] packet_size 1B
attr unit B
par Aloha.host[266] x 143.797m
attr unit m
par Aloha.host[266] y 178.977m
attr unit m
par Aloha.host[266] txrate 1000Bps
attr unit Bps
par Aloha.host[267] typename "\"Host\""
par Aloha.host[267] arrrate 1
par Aloha.host[267] packet_size 1B
attr unit B
par Aloha.host[267] x 134.658m
attr unit m
par Aloha.host[267] y 160.629m
attr unit m
par Aloha.host[267] txrate 1000Bps
attr unit Bps
par Aloha.host[268] typename "\"Host\""
par Aloha.host[268] arrrate 1
par Aloha.host[268] packet_size 1B
attr unit B
par Aloha.host[268] x 110.107m
attr unit m
par Aloha.host[268] y 26.0367m
attr unit m
par Aloha.host[268] txrate 1000Bps
attr unit Bps
par Aloha.host[269] typename "\"Host\""
par Aloha.host[269] arrrate 1
par Aloha.host[269] packet_size 1B
attr unit B
par Aloha.host[269] x 136.555m
attr unit m
par Aloha.host[269] y 62.8742m
attr unit m
par Aloha.host[269] txrate 1000Bps
attr unit Bps
par Aloha.host[270] typename "\"Host\""
par Aloha.host[270] arrrate 1
par Aloha.host[270] packet_size 1B
attr unit B
par Aloha.host[270] x 34.8066m
attr unit m
par Aloha.host[270] y 160.824m
attr unit m
par Aloha.host[270] txrate 1000Bps
attr unit Bps
par Aloha.host[271] typename "\"Host\""
par Aloha.host[271] arrrate 1
par Aloha.host[271] packet_size 1B
attr unit B
par Aloha.host[271] x 92.9036m
attr unit m
par Aloha.host[271] y 184.228m
attr unit m
par Aloha.host[271] txrate 1000Bps
attr unit Bps
par Aloha.host[272] typename "\"Host\""
par Aloha.host[272] arrrate 1
par Aloha.host[272] packet_size 1B
attr unit B
par Aloha.host[272] x 98.7918m
attr unit m
par Aloha.host[272] y 150.017m
attr unit m
par Aloha.host[272] txrate 1000Bps
attr unit Bps
par Aloha.host[273] typename "\"Host\""
par Aloha.host[273] arrrate 1
par Aloha.host[273] packet_size 1B
attr unit B
par Aloha.host[273] x 5.48225m
attr unit m
par Aloha.host[273] y 28.7425m
attr unit m
par Aloha.host[273] txrate 1000Bps
attr unit Bps
par Aloha.host[274] typename "\"Host\""
par Aloha.host[274] arrrate 1
par Aloha.host[274] packet_size 1B
attr unit B
par Aloha.host[274] x 43.6477m
attr unit m
par Aloha.host[274] y 184.239m
attr unit m
par Aloha.host[274] txrate 1000Bps
attr unit Bps
par Aloha.host[275] typename "\"Host\""
par Aloha.host[275] arrrate 1
par Aloha.host[275] packet_size 1B
attr unit B
par Aloha.host[275] x 186.682m
attr unit m
par Aloha.host[275] y 17.2707m
attr unit m
par Aloha.host[275] txrate 1000Bps
attr unit Bps
par Aloha.host[276] typename "\"Host\""
par Aloha.host[276] arrrate 1
par Aloha.host[276] packet_size 1B
attr unit B
par Aloha.host[276] x 131.729m
attr unit m
par Aloha.host[276] y 163.429m
attr unit m
par Aloha.host[276] txrate 1000Bps
attr unit Bps
par Aloha.host[277] typename "\"Host\""
par Aloha.host[277] arrrate 1
par Aloha.host[277] packet_size 1B
attr unit B
par Aloha.host[277] x 195.732m
attr unit m
par Aloha.host[277] y 183.885m
attr unit m
par Aloha.host[277] txrate 1000Bps
attr unit Bps
par Aloha.host[278] typename "\"Host\""
par Aloha.host[278] arrrate 1
par Aloha.host[278] packet_size 1B
attr unit B
par Aloha.host[278] x 73.8628m
attr unit m
par Aloha.host[278] y 123.424m
attr unit m
par Aloha.host[278] txrate 1000Bps
attr unit Bps
par Aloha.host[279] typename "\"Host\""
par Aloha.host[279] arrrate 1
par Aloha.host[279] packet_size 1B
attr unit B
par Aloha.host[279] x 152.478m
attr unit m
par Aloha.host[279] y 119.843m
attr unit m
par Aloha.host[279] txrate 1000Bps
attr unit Bps
par Aloha.host[280] typename "\"Host\""
par Aloha.host[280] arrrate 1
par Aloha.host[280] packet_size 1B
attr unit B
par Aloha.host[280] x 119.933m
attr unit m
par Aloha.host[280] y 62.0897m
attr unit m
par Aloha.host[280] txrate 1000Bps
attr unit Bps
par Aloha.host[281] typename "\"Host\""
par Aloha.host[281] arrrate 1
par Aloha.host[281] packet_size 1B
attr unit B
par Aloha.host[281] x 120.418m
attr unit m
par Aloha.host[281] y 5.00451m
attr unit m
par Aloha.host[281] txrate 1000Bps
attr unit Bps
par Aloha.host[282] typename "\"Host\""
par Aloha.host[282] arrrate 1
par Aloha.host[282] packet_size 1B
attr unit B
par Aloha.host[282] x 22.6615m
attr unit m
par Aloha.host[282] y 30.753m
attr unit m
par Aloha.host[282] txrate 1000Bps
attr unit Bps
par Aloha.host[283] typename "\"Host\""
par Aloha.host[283] arrrate 1
par Aloha.host[283] packet_size 1B
attr unit B
par Aloha.host[283] x 44.4402m
attr unit m
par Aloha.host[283] y 109.423m
attr unit m
par Aloha.host[283] txrate 1000Bps
attr unit Bps
par Aloha.host[284] typename "\"Host\""
par Aloha.host[284] arrrate 1
par Aloha.host[284] packet_size 1B
attr unit B
par Aloha.host[284] x 14.4525m
attr unit m
par Aloha.host[284] y 148.365m
attr unit m
par Aloha.host[284] txrate 1000Bps
attr unit Bps
par Aloha.host[285] typename "\"Host\""
par Aloha.host[285] arrrate 1
par Aloha.host[285] packet_size 1B
attr unit B
par Aloha.host[285] x 101.061m
attr unit m
par Aloha.host[285] y 93.5318m
attr unit m
par Aloha.host[285] txrate 1000Bps
attr unit Bps
par Aloha.host[286] typename "\"Host\""
par Aloha.host[286] arrrate 1
par Aloha.host[286] packet_size 1B
attr unit B
par Aloha.host[286] x 69.0198m
attr unit m
par Aloha.host[286] y 6.32159m
attr unit m
par Aloha.host[286] txrate 1000Bps
attr unit Bps
par Aloha.host[287] typename "\"Host\""
par Aloha.host[287] arrrate 1
par Aloha.host[287] packet_size 1B
attr unit B
par Aloha.host[287] x 39.3441m
attr unit m
par Aloha.host[287] y 165.097m
attr unit m
par Aloha.host[287] txrate 1000Bps
attr unit Bps
par Aloha.host[288] typename "\"Host\""
par Aloha.host[288] arrrate 1
par Aloha.host[288] packet_size 1B
attr unit B
par Aloha.host[288] x 74.9394m
attr unit m
par Aloha.host[288] y 86.1787m
attr unit m
par Aloha.host[288] txrate 1000Bps
attr unit Bps
par Aloha.host[289] typename "\"Host\""
par Aloha.host[289] arrrate 1
par Aloha.host[289] packet_size 1B
attr unit B
par Aloha.host[289] x 105.281m
attr unit m
par Aloha.host[289] y 67.2519m
attr unit m
par Aloha.host[289] txrate 1000Bps
attr unit Bps
par Aloha.host[290] typename "\"Host\""
par Aloha.host[290] arrrate 1
par Aloha.host[290] packet_size 1B
attr unit B
par Aloha.host[290] x 142.165m
attr unit m
par Aloha.host[290] y 194.277m
attr unit m
par Aloha.host[290] txrate 1000Bps
attr unit Bps
par Aloha.host[291] typename "\"Host\""
par Aloha.host[291] arrrate 1
par Aloha.host[291] packet_size 1B
attr unit B
par Aloha.host[291] x 117.994m
attr unit m
par Aloha.host[291] y 6.26287m
attr unit m
par Aloha.host[291] txrate 1000Bps
attr unit Bps
par Aloha.host[292] typename "\"Host\""
par Aloha.host[292] arrrate 1
par Aloha.host[292] packet_size 1B
attr unit B
par Aloha.host[292] x 127.818m
attr unit m
par Aloha.host[292] y 11.0858m
attr unit m
par Aloha.host[292] txrate 1000Bps
attr unit Bps
par Aloha.host[293] typename "\"Host\""
par Aloha.host[293] arrrate 1
par Aloha.host[293] packet_size 1B
attr unit B
par Aloha.host[293] x 120.752m
attr unit m
par Aloha.host[293] y 192.593m
attr unit m
par Aloha.host[293] txrate 1000Bps
attr unit Bps
par Aloha.host[294] typename "\"Host\""
par Aloha.host[294] arrrate 1
par Aloha.host[294] packet_size 1B
attr unit B
par Aloha.host[294] x 74.715m
attr unit m
par Aloha.host[294] y 169.245m
attr unit m
par Aloha.host[294] txrate 1000Bps
attr unit Bps
par Aloha.host[295] typename "\"Host\""
par Aloha.host[295] arrrate 1
par Aloha.host[295] packet_size 1B
attr unit B
par Aloha.host[295] x 65.1109m
attr unit m
par Aloha.host[295] y 118.326m
attr unit m
par Aloha.host[295] txrate 1000Bps
attr unit Bps
par Aloha.host[296] typename "\"Host\""
par Aloha.host[296] arrrate 1
par Aloha.host[296] packet_size 1B
attr unit B
par Aloha.host[296] x 112.228m
attr unit m
par Aloha.host[296] y 90.2879m
attr unit m
par Aloha.host[296] txrate 1000Bps
attr unit Bps
par Aloha.host[297] typename "\"Host\""
par Aloha.host[297] arrrate 1
par Aloha.host[297] packet_size 1B
attr unit B
par Aloha.host[297] x 149.933m
attr unit m
par Aloha.host[297] y 109.755m
attr unit m
par Aloha.host[297] txrate 1000Bps
attr unit Bps
par Aloha.host[298] typename "\"Host\""
par Aloha.host[298] arrrate 1
par Aloha.host[298] packet_size 1B
attr unit B
par Aloha.host[298] x 183.838m
attr unit m
par Aloha.host[298] y 98.7544m
attr unit m
par Aloha.host[298] txrate 1000Bps
attr unit Bps
par Aloha.host[299] typename "\"Host\""
par Aloha.host[299] arrrate 1
par Aloha.host[299] packet_size 1B
attr unit B
par Aloha.host[299] x 165.534m
attr unit m
par Aloha.host[299] y 188.597m
attr unit m
par Aloha.host[299] txrate 1000Bps
attr unit Bps
par Aloha.host[300] typename "\"Host\""
par Aloha.host[300] arrrate 1
par Aloha.host[300] packet_size 1B
attr unit B
par Aloha.host[300] x 110.745m
attr unit m
par Aloha.host[300] y 92.9006m
attr unit m
par Aloha.host[300] txrate 1000Bps
attr unit Bps
par Aloha.host[301] typename "\"Host\""
par Aloha.host[301] arrrate 1
par Aloha.host[301] packet_size 1B
attr unit B
par Aloha.host[301] x 164.964m
attr unit m
par Aloha.host[301] y 30.3511m
attr unit m
par Aloha.host[301] txrate 1000Bps
attr unit Bps
par Aloha.host[302] typename "\"Host\""
par Aloha.host[302] arrrate 1
par Aloha.host[302] packet_size 1B
attr unit B
par Aloha.host[302] x 5.64641m
attr unit m
par Aloha.host[302] y 14.0021m
attr unit m
par Aloha.host[302] txrate 1000Bps
attr unit Bps
par Aloha.host[303] typename "\"Host\""
par Aloha.host[303] arrrate 1
par Aloha.host[303] packet_size 1B
attr unit B
par Aloha.host[303] x 159.504m
attr unit m
par Aloha.host[303] y 71.1604m
attr unit m
par Aloha.host[303] txrate 1000Bps
attr unit Bps
par Aloha.host[304] typename "\"Host\""
par Aloha.host[304] arrrate 1
par Aloha.host[304] packet_size 1B
attr unit B
par Aloha.host[304] x 39.8977m
attr unit m
par Aloha.host[304] y 153.453m
attr unit m
par Aloha.host[304] txrate 1000Bps
attr unit Bps
par Aloha.host[305] typename "\"Host\""
par Aloha.host[305] arrrate 1
par Aloha.host[305] packet_size 1B
attr unit B
par Aloha.host[305] x 137.168m
attr unit m
par Aloha.host[305] y 68.4965m
attr unit m
par Aloha.host[305] txrate 1000Bps
attr unit Bps
par Aloha.host[306] typename "\"Host\""
par Aloha.host[306] arrrate 1
par Aloha.host[306] packet_size 1B
attr unit B
par Aloha.host[306] x 165.038m
attr unit m
par Aloha.host[306] y 58.0723m
attr unit m
par Aloha.host[306] txrate 1000Bps
attr unit Bps
par Aloha.host[307] typename "\"Host\""
par Aloha.host[307] arrrate 1
par Aloha.host[307] packet_size 1B
attr unit B
par Aloha.host[307] x 62.9926m
attr unit m
par Aloha.host[307] y 19.4904m
attr unit m
par Aloha.host[307] txrate 1000Bps
attr unit Bps
par Aloha.host[308] typename "\"Host\""
par Aloha.host[308] arrrate 1
par Aloha.host[308] packet_size 1B
attr unit B
par Aloha.host[308] x 79.9495m
attr unit m
par Aloha.host[308] y 53.8738m
attr unit m
par Aloha.host[308] txrate 1000Bps
attr unit Bps
par Aloha.host[309] typename "\"Host\""
par Aloha.host[309] arrrate 1
par Aloha.host[309] packet_size 1B
attr unit B
par Aloha.host[309] x 197.118m
attr unit m
par Aloha.host[309] y 125.153m
attr unit m
par Aloha.host[309] txrate 1000Bps
attr unit Bps
par Aloha.host[310] typename "\"Host\""
par Aloha.host[310] arrrate 1
par Aloha.host[310] packet_size 1B
attr unit B
par Aloha.host[310] x 50.7129m
attr unit m
par Aloha.host[310] y 135.389m
attr unit m
par Aloha.host[310] txrate 1000Bps
attr unit Bps
par Aloha.host[311] typename "\"Host\""
par Aloha.host[311] arrrate 1
par Aloha.host[311] packet_size 1B
attr unit B
par Aloha.host[311] x 151.068m
attr unit m
par Aloha.host[311] y 186.559m
attr unit m
par Aloha.host[311] txrate 1000Bps
attr unit Bps
par Aloha.host[312] typename "\"Host\""
par Aloha.host[312] arrrate 1
par Aloha.host[312] packet_size 1B
attr unit B
par Aloha.host[312] x 81.2119m
attr unit m
par Aloha.host[312] y 134.963m
attr unit m
par Aloha.host[312] txrate 1000Bps
attr unit Bps
par Aloha.host[313] typename "\"Host\""
par Aloha.host[313] arrrate 1
par Aloha.host[313] packet_size 1B
attr unit B
par Aloha.host[313] x 63.046m
attr unit m
par Aloha.host[313] y 160.529m
attr unit m
par Aloha.host[313] txrate 1000Bps
attr unit Bps
par Aloha.host[314] typename "\"Host\""
par Aloha.host[314] arrrate 1
par Aloha.host[314] packet_size 1B
attr unit B
par Aloha.host[314] x 154.103m
attr unit m
par Aloha.host[314] y 90.6109m
attr unit m
par Aloha.host[314] txrate 1000Bps
attr unit Bps
par Aloha.host[315] typename "\"Host\""
par Aloha.host[315] arrrate 1
par Aloha.host[315] packet_size 1B
attr unit B
par Aloha.host[315] x 89.9721m
attr unit m
par Aloha.host[315] y 106.883m
attr unit m
par Aloha.host[315] txrate 1000Bps
attr unit Bps
par Aloha.host[316] typename "\"Host\""
par Aloha.host[316] arrrate 1
par Aloha.host[316] packet_size 1B
attr unit B
par Aloha.host[316] x 142.017m
attr unit m
par Aloha.host[316] y 11.0822m
attr unit m
par Aloha.host[316] txrate 1000Bps
attr unit Bps
par Aloha.host[317] typename "\"Host\""
par Aloha.host[317] arrrate 1
par Aloha.host[317] packet_size 1B
attr unit B
par Aloha.host[317] x 44.4401m
[...]
par Aloha.host[921] y 96.9647m
attr unit m
par Aloha.host[921] txrate 1000Bps
attr unit Bps
par Aloha.host[922] typename "\"Host\""
par Aloha.host[922] arrrate 1
par Aloha.host[922] packet_size 1B
attr unit B
par Aloha.host[922] x 160.64m
attr unit m
par Aloha.host[922] y 179.253m
attr unit m
par Aloha.host[922] txrate 1000Bps
attr unit Bps
par Aloha.host[923] typename "\"Host\""
par Aloha.host[923] arrrate 1
par Aloha.host[923] packet_size 1B
attr unit B
par Aloha.host[923] x 184.599m
attr unit m
par Aloha.host[923] y 152.271m
attr unit m
par Aloha.host[923] txrate 1000Bps
attr unit Bps
par Aloha.host[924] typename "\"Host\""
par Aloha.host[924] arrrate 1
par Aloha.host[924] packet_size 1B
attr unit B
par Aloha.host[924] x 137.371m
attr unit m
par Aloha.host[924] y 83.9794m
attr unit m
par Aloha.host[924] txrate 1000Bps
attr unit Bps
par Aloha.host[925] typename "\"Host\""
par Aloha.host[925] arrrate 1
par Aloha.host[925] packet_size 1B
attr unit B
par Aloha.host[925] x 90.8665m
attr unit m
par Aloha.host[925] y 196.931m
attr unit m
par Aloha.host[925] txrate 1000Bps
attr unit Bps
par Aloha.host[926] typename "\"Host\""
par Aloha.host[926] arrrate 1
par Aloha.host[926] packet_size 1B
attr unit B
par Aloha.host[926] x 109.957m
attr unit m
par Aloha.host[926] y 192.525m
attr unit m
par Aloha.host[926] txrate 1000Bps
attr unit Bps
par Aloha.host[927] typename "\"Host\""
par Aloha.host[927] arrrate 1
par Aloha.host[927] packet_size 1B
attr unit B
par Aloha.host[927] x 36.4945m
attr unit m
par Aloha.host[927] y 98.0819m
attr unit m
par Aloha.host[927] txrate 1000Bps
attr unit Bps
par Aloha.host[928] typename "\"Host\""
par Aloha.host[928] arrrate 1
par Aloha.host[928] packet_size 1B
attr unit B
par Aloha.host[928] x 33.9863m
attr unit m
par Aloha.host[928] y 196.843m
attr unit m
par Aloha.host[928] txrate 1000Bps
attr unit Bps
par Aloha.host[929] typename "\"Host\""
par Aloha.host[929] arrrate 1
par Aloha.host[929] packet_size 1B
attr unit B
par Aloha.host[929] x 12.7528m
attr unit m
par Aloha.host[929] y 3.63263m
attr unit m
par Aloha.host[929] txrate 1000Bps
attr unit Bps
par Aloha.host[930] typename "\"Host\""
par Aloha.host[930] arrrate 1
par Aloha.host[930] packet_size 1B
attr unit B
par Aloha.host[930] x 138.114m
attr unit m
par Aloha.host[930] y 142.275m
attr unit m
par Aloha.host[930] txrate 1000Bps
attr unit Bps
par Aloha.host[931] typename "\"Host\""
par Aloha.host[931] arrrate 1
par Aloha.host[931] packet_size 1B
attr unit B
par Aloha.host[931] x 56.4126m
attr unit m
par Aloha.host[931] y 102.383m
attr unit m
par Aloha.host[931] txrate 1000Bps
attr unit Bps
par Aloha.host[932] typename "\"Host\""
par Aloha.host[932] arrrate 1
par Aloha.host[932] packet_size 1B
attr unit B
par Aloha.host[932] x 195.522m
attr unit m
par Aloha.host[932] y 193.471m
attr unit m
par Aloha.host[932] txrate 1000Bps
attr unit Bps
par Aloha.host[933] typename "\"Host\""
par Aloha.host[933] arrrate 1
par Aloha.host[933] packet_size 1B
attr unit B
par Aloha.host[933] x 149.771m
attr unit m
par Aloha.host[933] y 3.47368m
attr unit m
par Aloha.host[933] txrate 1000Bps
attr unit Bps
par Aloha.host[934] typename "\"Host\""
par Aloha.host[934] arrrate 1
par Aloha.host[934] packet_size 1B
attr unit B
par Aloha.host[934] x 135.367m
attr unit m
par Aloha.host[934] y 48.5329m
attr unit m
par Aloha.host[934] txrate 1000Bps
attr unit Bps
par Aloha.host[935] typename "\"Host\""
par Aloha.host[935] arrrate 1
par Aloha.host[935] packet_size 1B
attr unit B
par Aloha.host[935] x 133.465m
attr unit m
par Aloha.host[935] y 16.2917m
attr unit m
par Aloha.host[935] txrate 1000Bps
attr unit Bps
par Aloha.host[936] typename "\"Host\""
par Aloha.host[936] arrrate 1
par Aloha.host[936] packet_size 1B
attr unit B
par Aloha.host[936] x 120.535m
attr unit m
par Aloha.host[936] y 147.196m
attr unit m
par Aloha.host[936] txrate 1000Bps
attr unit Bps
par Aloha.host[937] typename "\"Host\""
par Aloha.host[937] arrrate 1
par Aloha.host[937] packet_size 1B
attr unit B
par Aloha.host[937] x 22.797m
attr unit m
par Aloha.host[937] y 114.268m
attr unit m
par Aloha.host[937] txrate 1000Bps
attr unit Bps
par Aloha.host[938] typename "\"Host\""
par Aloha.host[938] arrrate 1
par Aloha.host[938] packet_size 1B
attr unit B
par Aloha.host[938] x 192.689m
attr unit m
par Aloha.host[938] y 35.6791m
attr unit m
par Aloha.host[938] txrate 1000Bps
attr unit Bps
par Aloha.host[939] typename "\"Host\""
par Aloha.host[939] arrrate 1
par Aloha.host[939] packet_size 1B
attr unit B
par Aloha.host[939] x 105.271m
attr unit m
par Aloha.host[939] y 175.26m
attr unit m
par Aloha.host[939] txrate 1000Bps
attr unit Bps
par Aloha.host[940] typename "\"Host\""
par Aloha.host[940] arrrate 1
par Aloha.host[940] packet_size 1B
attr unit B
par Aloha.host[940] x 134.817m
attr unit m
par Aloha.host[940] y 174.39m
attr unit m
par Aloha.host[940] txrate 1000Bps
attr unit Bps
par Aloha.host[941] typename "\"Host\""
par Aloha.host[941] arrrate 1
par Aloha.host[941] packet_size 1B
attr unit B
par Aloha.host[941] x 121.332m
attr unit m
par Aloha.host[941] y 152.517m
attr unit m
par Aloha.host[941] txrate 1000Bps
attr unit Bps
par Aloha.host[942] typename "\"Host\""
par Aloha.host[942] arrrate 1
par Aloha.host[942] packet_size 1B
attr unit B
par Aloha.host[942] x 103.309m
attr unit m
par Aloha.host[942] y 51.3141m
attr unit m
par Aloha.host[942] txrate 1000Bps
attr unit Bps
par Aloha.host[943] typename "\"Host\""
par Aloha.host[943] arrrate 1
par Aloha.host[943] packet_size 1B
attr unit B
par Aloha.host[943] x 54.1612m
attr unit m
par Aloha.host[943] y 157.04m
attr unit m
par Aloha.host[943] txrate 1000Bps
attr unit Bps
par Aloha.host[944] typename "\"Host\""
par Aloha.host[944] arrrate 1
par Aloha.host[944] packet_size 1B
attr unit B
par Aloha.host[944] x 121.184m
attr unit m
par Aloha.host[944] y 93.0507m
attr unit m
par Aloha.host[944] txrate 1000Bps
attr unit Bps
par Aloha.host[945] typename "\"Host\""
par Aloha.host[945] arrrate 1
par Aloha.host[945] packet_size 1B
attr unit B
par Aloha.host[945] x 141.209m
attr unit m
par Aloha.host[945] y 85.522m
attr unit m
par Aloha.host[945] txrate 1000Bps
attr unit Bps
par Aloha.host[946] typename "\"Host\""
par Aloha.host[946] arrrate 1
par Aloha.host[946] packet_size 1B
attr unit B
par Aloha.host[946] x 74.5871m
attr unit m
par Aloha.host[946] y 136.033m
attr unit m
par Aloha.host[946] txrate 1000Bps
attr unit Bps
par Aloha.host[947] typename "\"Host\""
par Aloha.host[947] arrrate 1
par Aloha.host[947] packet_size 1B
attr unit B
par Aloha.host[947] x 140.98m
attr unit m
par Aloha.host[947] y 179.652m
attr unit m
par Aloha.host[947] txrate 1000Bps
attr unit Bps
par Aloha.host[948] typename "\"Host\""
par Aloha.host[948] arrrate 1
par Aloha.host[948] packet_size 1B
attr unit B
par Aloha.host[948] x 27.1121m
attr unit m
par Aloha.host[948] y 166.947m
attr unit m
par Aloha.host[948] txrate 1000Bps
attr unit Bps
par Aloha.host[949] typename "\"Host\""
par Aloha.host[949] arrrate 1
par Aloha.host[949] packet_size 1B
attr unit B
par Aloha.host[949] x 141.504m
attr unit m
par Aloha.host[949] y 158.47m
attr unit m
par Aloha.host[949] txrate 1000Bps
attr unit Bps
par Aloha.host[950] typename "\"Host\""
par Aloha.host[950] arrrate 1
par Aloha.host[950] packet_size 1B
attr unit B
par Aloha.host[950] x 155.762m
attr unit m
par Aloha.host[950] y 25.3823m
attr unit m
par Aloha.host[950] txrate 1000Bps
attr unit Bps
par Aloha.host[951] typename "\"Host\""
par Aloha.host[951] arrrate 1
par Aloha.host[951] packet_size 1B
attr unit B
par Aloha.host[951] x 196.707m
attr unit m
par Aloha.host[951] y 169.19m
attr unit m
par Aloha.host[951] txrate 1000Bps
attr unit Bps
par Aloha.host[952] typename "\"Host\""
par Aloha.host[952] arrrate 1
par Aloha.host[952] packet_size 1B
attr unit B
par Aloha.host[952] x 147.607m
attr unit m
par Aloha.host[952] y 90.5882m
attr unit m
par Aloha.host[952] txrate 1000Bps
attr unit Bps
par Aloha.host[953] typename "\"Host\""
par Aloha.host[953] arrrate 1
par Aloha.host[953] packet_size 1B
attr unit B
par Aloha.host[953] x 189.13m
attr unit m
par Aloha.host[953] y 18.2809m
attr unit m
par Aloha.host[953] txrate 1000Bps
attr unit Bps
par Aloha.host[954] typename "\"Host\""
par Aloha.host[954] arrrate 1
par Aloha.host[954] packet_size 1B
attr unit B
par Aloha.host[954] x 48.3993m
attr unit m
par Aloha.host[954] y 192.023m
attr unit m
par Aloha.host[954] txrate 1000Bps
attr unit Bps
par Aloha.host[955] typename "\"Host\""
par Aloha.host[955] arrrate 1
par Aloha.host[955] packet_size 1B
attr unit B
par Aloha.host[955] x 169.013m
attr unit m
par Aloha.host[955] y 86.1764m
attr unit m
par Aloha.host[955] txrate 1000Bps
attr unit Bps
par Aloha.host[956] typename "\"Host\""
par Aloha.host[956] arrrate 1
par Aloha.host[956] packet_size 1B
attr unit B
par Aloha.host[956] x 138.068m
attr unit m
par Aloha.host[956] y 28.1167m
attr unit m
par Aloha.host[956] txrate 1000Bps
attr unit Bps
par Aloha.host[957] typename "\"Host\""
par Aloha.host[957] arrrate 1
par Aloha.host[957] packet_size 1B
attr unit B
par Aloha.host[957] x 177.554m
attr unit m
par Aloha.host[957] y 96.6093m
attr unit m
par Aloha.host[957] txrate 1000Bps
attr unit Bps
par Aloha.host[958] typename "\"Host\""
par Aloha.host[958] arrrate 1
par Aloha.host[958] packet_size 1B
attr unit B
par Aloha.host[958] x 15.6577m
attr unit m
par Aloha.host[958] y 161.559m
attr unit m
par Aloha.host[958] txrate 1000Bps
attr unit Bps
par Aloha.host[959] typename "\"Host\""
par Aloha.host[959] arrrate 1
par Aloha.host[959] packet_size 1B
attr unit B
par Aloha.host[959] x 110.275m
attr unit m
par Aloha.host[959] y 67.7393m
attr unit m
par Aloha.host[959] txrate 1000Bps
attr unit Bps
par Aloha.host[960] typename "\"Host\""
par Aloha.host[960] arrrate 1
par Aloha.host[960] packet_size 1B
attr unit B
par Aloha.host[960] x 38.4411m
attr unit m
par Aloha.host[960] y 114.382m
attr unit m
par Aloha.host[960] txrate 1000Bps
attr unit Bps
par Aloha.host[961] typename "\"Host\""
par Aloha.host[961] arrrate 1
par Aloha.host[961] packet_size 1B
attr unit B
par Aloha.host[961] x 42.5628m
attr unit m
par Aloha.host[961] y 2.55144m
attr unit m
par Aloha.host[961] txrate 1000Bps
attr unit Bps
par Aloha.host[962] typename "\"Host\""
par Aloha.host[962] arrrate 1
par Aloha.host[962] packet_size 1B
attr unit B
par Aloha.host[962] x 50.0326m
attr unit m
par Aloha.host[962] y 3.93768m
attr unit m
par Aloha.host[962] txrate 1000Bps
attr unit Bps
par Aloha.host[963] typename "\"Host\""
par Aloha.host[963] arrrate 1
par Aloha.host[963] packet_size 1B
attr unit B
par Aloha.host[963] x 19.9613m
attr unit m
par Aloha.host[963] y 98.6573m
attr unit m
par Aloha.host[963] txrate 1000Bps
attr unit Bps
par Aloha.host[964] typename "\"Host\""
par Aloha.host[964] arrrate 1
par Aloha.host[964] packet_size 1B
attr unit B
par Aloha.host[964] x 25.854m
attr unit m
par Aloha.host[964] y 40.4215m
attr unit m
par Aloha.host[964] txrate 1000Bps
attr unit Bps
par Aloha.host[965] typename "\"Host\""
par Aloha.host[965] arrrate 1
par Aloha.host[965] packet_size 1B
attr unit B
par Aloha.host[965] x 147.192m
attr unit m
par Aloha.host[965] y 174.225m
attr unit m
par Aloha.host[965] txrate 1000Bps
attr unit Bps
par Aloha.host[966] typename "\"Host\""
par Aloha.host[966] arrrate 1
par Aloha.host[966] packet_size 1B
attr unit B
par Aloha.host[966] x 115.631m
attr unit m
par Aloha.host[966] y 123.843m
attr unit m
par Aloha.host[966] txrate 1000Bps
attr unit Bps
par Aloha.host[967] typename "\"Host\""
par Aloha.host[967] arrrate 1
par Aloha.host[967] packet_size 1B
attr unit B
par Aloha.host[967] x 174.584m
attr unit m
par Aloha.host[967] y 123.956m
attr unit m
par Aloha.host[967] txrate 1000Bps
attr unit Bps
par Aloha.host[968] typename "\"Host\""
par Aloha.host[968] arrrate 1
par Aloha.host[968] packet_size 1B
attr unit B
par Aloha.host[968] x 4.87284m
attr unit m
par Aloha.host[968] y 108.304m
attr unit m
par Aloha.host[968] txrate 1000Bps
attr unit Bps
par Aloha.host[969] typename "\"Host\""
par Aloha.host[969] arrrate 1
par Aloha.host[969] packet_size 1B
attr unit B
par Aloha.host[969] x 108.361m
attr unit m
par Aloha.host[969] y 66.5619m
attr unit m
par Aloha.host[969] txrate 1000Bps
attr unit Bps
par Aloha.host[970] typename "\"Host\""
par Aloha.host[970] arrrate 1
par Aloha.host[970] packet_size 1B
attr unit B
par Aloha.host[970] x 161.165m
attr unit m
par Aloha.host[970] y 68.8357m
attr unit m
par Aloha.host[970] txrate 1000Bps
attr unit Bps
par Aloha.host[971] typename "\"Host\""
par Aloha.host[971] arrrate 1
par Aloha.host[971] packet_size 1B
attr unit B
par Aloha.host[971] x 121.344m
attr unit m
par Aloha.host[971] y 173.019m
attr unit m
par Aloha.host[971] txrate 1000Bps
attr unit Bps
par Aloha.host[972] typename "\"Host\""
par Aloha.host[972] arrrate 1
par Aloha.host[972] packet_size 1B
attr unit B
par Aloha.host[972] x 46.0096m
attr unit m
par Aloha.host[972] y 148.334m
attr unit m
par Aloha.host[972] txrate 1000Bps
attr unit Bps
par Aloha.host[973] typename "\"Host\""
par Aloha.host[973] arrrate 1
par Aloha.host[973] packet_size 1B
attr unit B
par Aloha.host[973] x 3.32082m
attr unit m
par Aloha.host[973] y 149.706m
attr unit m
par Aloha.host[973] txrate 1000Bps
attr unit Bps
par Aloha.host[974] typename "\"Host\""
par Aloha.host[974] arrrate 1
par Aloha.host[974] packet_size 1B
attr unit B
par Aloha.host[974] x 146.91m
attr unit m
par Aloha.host[974] y 119.312m
attr unit m
par Aloha.host[974] txrate 1000Bps
attr unit Bps
par Aloha.host[975] typename "\"Host\""
par Aloha.host[975] arrrate 1
par Aloha.host[975] packet_size 1B
attr unit B
par Aloha.host[975] x 161.163m
attr unit m
par Aloha.host[975] y 4.68152m
attr unit m
par Aloha.host[975] txrate 1000Bps
attr unit Bps
par Aloha.host[976] typename "\"Host\""
par Aloha.host[976] arrrate 1
par Aloha.host[976] packet_size 1B
attr unit B
par Aloha.host[976] x 12.5795m
attr unit m
par Aloha.host[976] y 158.009m
attr unit m
par Aloha.host[976] txrate 1000Bps
attr unit Bps
par Aloha.host[977] typename "\"Host\""
par Aloha.host[977] arrrate 1
par Aloha.host[977] packet_size 1B
attr unit B
par Aloha.host[977] x 90.3458m
attr unit m
par Aloha.host[977] y 138.126m
attr unit m
par Aloha.host[977] txrate 1000Bps
attr unit Bps
par Aloha.host[978] typename "\"Host\""
par Aloha.host[978] arrrate 1
par Aloha.host[978] packet_size 1B
attr unit B
par Aloha.host[978] x 59.9608m
attr unit m
par Aloha.host[978] y 173.555m
attr unit m
par Aloha.host[978] txrate 1000Bps
attr unit Bps
par Aloha.host[979] typename "\"Host\""
par Aloha.host[979] arrrate 1
par Aloha.host[979] packet_size 1B
attr unit B
par Aloha.host[979] x 95.7708m
attr unit m
par Aloha.host[979] y 128.035m
attr unit m
par Aloha.host[979] txrate 1000Bps
attr unit Bps
par Aloha.host[980] typename "\"Host\""
par Aloha.host[980] arrrate 1
par Aloha.host[980] packet_size 1B
attr unit B
par Aloha.host[980] x 153.777m
attr unit m
par Aloha.host[980] y 54.1827m
attr unit m
par Aloha.host[980] txrate 1000Bps
attr unit Bps
par Aloha.host[981] typename "\"Host\""
par Aloha.host[981] arrrate 1
par Aloha.host[981] packet_size 1B
attr unit B
par Aloha.host[981] x 112.946m
attr unit m
par Aloha.host[981] y 184.098m
attr unit m
par Aloha.host[981] txrate 1000Bps
attr unit Bps
par Aloha.host[982] typename "\"Host\""
par Aloha.host[982] arrrate 1
par Aloha.host[982] packet_size 1B
attr unit B
par Aloha.host[982] x 76.4198m
attr unit m
par Aloha.host[982] y 95.038m
attr unit m
par Aloha.host[982] txrate 1000Bps
attr unit Bps
par Aloha.host[983] typename "\"Host\""
par Aloha.host[983] arrrate 1
par Aloha.host[983] packet_size 1B
attr unit B
par Aloha.host[983] x 140.806m
attr unit m
par Aloha.host[983] y 41.0377m
attr unit m
par Aloha.host[983] txrate 1000Bps
attr unit Bps
par Aloha.host[984] typename "\"Host\""
par Aloha.host[984] arrrate 1
par Aloha.host[984] packet_size 1B
attr unit B
par Aloha.host[984] x 118.905m
attr unit m
par Aloha.host[984] y 194.183m
attr unit m
par Aloha.host[984] txrate 1000Bps
attr unit Bps
par Aloha.host[985] typename "\"Host\""
par Aloha.host[985] arrrate 1
par Aloha.host[985] packet_size 1B
attr unit B
par Aloha.host[985] x 174.705m
attr unit m
par Aloha.host[985] y 152.14m
attr unit m
par Aloha.host[985] txrate 1000Bps
attr unit Bps
par Aloha.host[986] typename "\"Host\""
par Aloha.host[986] arrrate 1
par Aloha.host[986] packet_size 1B
attr unit B
par Aloha.host[986] x 34.9571m
attr unit m
par Aloha.host[986] y 72.361m
attr unit m
par Aloha.host[986] txrate 1000Bps
attr unit Bps
par Aloha.host[987] typename "\"Host\""
par Aloha.host[987] arrrate 1
par Aloha.host[987] packet_size 1B
attr unit B
par Aloha.host[987] x 90.3589m
attr unit m
par Aloha.host[987] y 12.6077m
attr unit m
par Aloha.host[987] txrate 1000Bps
attr unit Bps
par Aloha.host[988] typename "\"Host\""
par Aloha.host[988] arrrate 1
par Aloha.host[988] packet_size 1B
attr unit B
par Aloha.host[988] x 124.157m
attr unit m
par Aloha.host[988] y 171.516m
attr unit m
par Aloha.host[988] txrate 1000Bps
attr unit Bps
par Aloha.host[989] typename "\"Host\""
par Aloha.host[989] arrrate 1
par Aloha.host[989] packet_size 1B
attr unit B
par Aloha.host[989] x 67.7034m
attr unit m
par Aloha.host[989] y 176.306m
attr unit m
par Aloha.host[989] txrate 1000Bps
attr unit Bps
par Aloha.host[990] typename "\"Host\""
par Aloha.host[990] arrrate 1
par Aloha.host[990] packet_size 1B
attr unit B
par Aloha.host[990] x 116.574m
attr unit m
par Aloha.host[990] y 48.4954m
attr unit m
par Aloha.host[990] txrate 1000Bps
attr unit Bps
par Aloha.host[991] typename "\"Host\""
par Aloha.host[991] arrrate 1
par Aloha.host[991] packet_size 1B
attr unit B
par Aloha.host[991] x 14.0133m
attr unit m
par Aloha.host[991] y 174.874m
attr unit m
par Aloha.host[991] txrate 1000Bps
attr unit Bps
par Aloha.host[992] typename "\"Host\""
par Aloha.host[992] arrrate 1
par Aloha.host[992] packet_size 1B
attr unit B
par Aloha.host[992] x 19.9076m
attr unit m
par Aloha.host[992] y 80.0692m
attr unit m
par Aloha.host[992] txrate 1000Bps
attr unit Bps
par Aloha.host[993] typename "\"Host\""
par Aloha.host[993] arrrate 1
par Aloha.host[993] packet_size 1B
attr unit B
par Aloha.host[993] x 94.9577m
attr unit m
par Aloha.host[993] y 59.6918m
attr unit m
par Aloha.host[993] txrate 1000Bps
attr unit Bps
par Aloha.host[994] typename "\"Host\""
par Aloha.host[994] arrrate 1
par Aloha.host[994] packet_size 1B
attr unit B
par Aloha.host[994] x 108.252m
attr unit m
par Aloha.host[994] y 30.2671m
attr unit m
par Aloha.host[994] txrate 1000Bps
attr unit Bps
par Aloha.host[995] typename "\"Host\""
par Aloha.host[995] arrrate 1
par Aloha.host[995] packet_size 1B
attr unit B
par Aloha.host[995] x 196.753m
attr unit m
par Aloha.host[995] y 99.8952m
attr unit m
par Aloha.host[995] txrate 1000Bps
attr unit Bps
par Aloha.host[996] typename "\"Host\""
par Aloha.host[996] arrrate 1
par Aloha.host[996] packet_size 1B
attr unit B
par Aloha.host[996] x 133.043m
attr unit m
par Aloha.host[996] y 49.2768m
attr unit m
par Aloha.host[996] txrate 1000Bps
attr unit Bps
par Aloha.host[997] typename "\"Host\""
par Aloha.host[997] arrrate 1
par Aloha.host[997] packet_size 1B
attr unit B
par Aloha.host[997] x 137.489m
attr unit m
par Aloha.host[997] y 187.562m
attr unit m
par Aloha.host[997] txrate 1000Bps
attr unit Bps
par Aloha.host[998] typename "\"Host\""
par Aloha.host[998] arrrate 1
par Aloha.host[998] packet_size 1B
attr unit B
par Aloha.host[998] x 123.495m
attr unit m
par Aloha.host[998] y 85.8604m
attr unit m
par Aloha.host[998] txrate 1000Bps
attr unit Bps
par Aloha.host[999] typename "\"Host\""
par Aloha.host[999] arrrate 1
par Aloha.host[999] packet_size 1B
attr unit B
par Aloha.host[999] x 198.851m
attr unit m
par Aloha.host[999] y 49.6714m
attr unit m
par Aloha.host[999] txrate 1000Bps
attr unit Bps
par Aloha.server typename "\"Server\""
par Aloha.server x 171.447m
attr unit m
par Aloha.server y 116.441m
attr unit m
scalar Aloha.server prob_succ 0.13547110207628
scalar Aloha.server uti 13.544727
par Aloha typename "\"Aloha\""
par Aloha numHosts 1000

