version 3
run General-3-20220605-16:53:18-732256
attr configname General
attr datetime 20220605-16:53:18
attr datetimef 20220605-165318
attr experiment General
attr inifile aloha.ini
attr iterationvars $0=0.4
attr iterationvarsd 0.4
attr iterationvarsf 0.4-
attr measurement $0=0.4
attr network Aloha
attr processid 732256
attr repetition 0
attr replication #0
attr resultdir results
attr runnumber 3
attr seedset 3
config network Aloha
config cmdenv-performance-display false
config sim-time-limit 100000s
config **.x "uniform(0m, 200m)"
config **.y "uniform(0m, 200m)"
config *.numHosts 1000
config **.packet_size 1B
config **.txrate 1000Bps
config **.arrrate 0.4

par Aloha.host[0] typename "\"Host\""
par Aloha.host[0] arrrate 0.4
par Aloha.host[0] packet_size 1B
attr unit B
par Aloha.host[0] x 110.16m
attr unit m
par Aloha.host[0] y 14.145m
attr unit m
par Aloha.host[0] txrate 1000Bps
attr unit Bps
par Aloha.host[1] typename "\"Host\""
par Aloha.host[1] arrrate 0.4
par Aloha.host[1] packet_size 1B
attr unit B
par Aloha.host[1] x 141.63m
attr unit m
par Aloha.host[1] y 167.99m
attr unit m
par Aloha.host[1] txrate 1000Bps
attr unit Bps
par Aloha.host[2] typename "\"Host\""
par Aloha.host[2] arrrate 0.4
par Aloha.host[2] packet_size 1B
attr unit B
par Aloha.host[2] x 58.1809m
attr unit m
par Aloha.host[2] y 24.2657m
attr unit m
par Aloha.host[2] txrate 1000Bps
attr unit Bps
par Aloha.host[3] typename "\"Host\""
par Aloha.host[3] arrrate 0.4
par Aloha.host[3] packet_size 1B
attr unit B
par Aloha.host[3] x 102.166m
attr unit m
par Aloha.host[3] y 113.862m
attr unit m
par Aloha.host[3] txrate 1000Bps
attr unit Bps
par Aloha.host[4] typename "\"Host\""
par Aloha.host[4] arrrate 0.4
par Aloha.host[4] packet_size 1B
attr unit B
par Aloha.host[4] x 178.589m
attr unit m
par Aloha.host[4] y 87.4124m
attr unit m
par Aloha.host[4] txrate 1000Bps
attr unit Bps
par Aloha.host[5] typename "\"Host\""
par Aloha.host[5] arrrate 0.4
par Aloha.host[5] packet_size 1B
attr unit B
par Aloha.host[5] x 179.259m
attr unit m
par Aloha.host[5] y 3.7496m
attr unit m
par Aloha.host[5] txrate 1000Bps
attr unit Bps
par Aloha.host[6] typename "\"Host\""
par Aloha.host[6] arrrate 0.4
par Aloha.host[6] packet_size 1B
attr unit B
par Aloha.host[6] x 25.1171m
attr unit m
par Aloha.host[6] y 8.12615m
attr unit m
par Aloha.host[6] txrate 1000Bps
attr unit Bps
par Aloha.host[7] typename "\"Host\""
par Aloha.host[7] arrrate 0.4
par Aloha.host[7] packet_size 1B
attr unit B
par Aloha.host[7] x 41.4486m
attr unit m
par Aloha.host[7] y 49.5777m
attr unit m
par Aloha.host[7] txrate 1000Bps
attr unit Bps
par Aloha.host[8] typename "\"Host\""
par Aloha.host[8] arrrate 0.4
par Aloha.host[8] packet_size 1B
attr unit B
par Aloha.host[8] x 10.2934m
attr unit m
par Aloha.host[8] y 18.7103m
attr unit m
par Aloha.host[8] txrate 1000Bps
attr unit Bps
par Aloha.host[9] typename "\"Host\""
par Aloha.host[9] arrrate 0.4
par Aloha.host[9] packet_size 1B
attr unit B
par Aloha.host[9] x 88.162m
attr unit m
par Aloha.host[9] y 138.965m
attr unit m
par Aloha.host[9] txrate 1000Bps
attr unit Bps
par Aloha.host[10] typename "\"Host\""
par Aloha.host[10] arrrate 0.4
par Aloha.host[10] packet_size 1B
attr unit B
par Aloha.host[10] x 5.97524m
attr unit m
par Aloha.host[10] y 29.074m
attr unit m
par Aloha.host[10] txrate 1000Bps
attr unit Bps
par Aloha.host[11] typename "\"Host\""
par Aloha.host[11] arrrate 0.4
par Aloha.host[11] packet_size 1B
attr unit B
par Aloha.host[11] x 91.3666m
attr unit m
par Aloha.host[11] y 90.6345m
attr unit m
par Aloha.host[11] txrate 1000Bps
attr unit Bps
par Aloha.host[12] typename "\"Host\""
par Aloha.host[12] arrrate 0.4
par Aloha.host[12] packet_size 1B
attr unit B
par Aloha.host[12] x 129.829m
attr unit m
par Aloha.host[12] y 43.1154m
attr unit m
par Aloha.host[12] txrate 1000Bps
attr unit Bps
par Aloha.host[13] typename "\"Host\""
par Aloha.host[13] arrrate 0.4
par Aloha.host[13] packet_size 1B
attr unit B
par Aloha.host[13] x 55.6975m
attr unit m
par Aloha.host[13] y 70.781m
attr unit m
par Aloha.host[13] txrate 1000Bps
attr unit Bps
par Aloha.host[14] typename "\"Host\""
par Aloha.host[14] arrrate 0.4
par Aloha.host[14] packet_size 1B
attr unit B
par Aloha.host[14] x 135.251m
attr unit m
par Aloha.host[14] y 98.5272m
attr unit m
par Aloha.host[14] txrate 1000Bps
attr unit Bps
par Aloha.host[15] typename "\"Host\""
par Aloha.host[15] arrrate 0.4
par Aloha.host[15] packet_size 1B
attr unit B
par Aloha.host[15] x 118.173m
attr unit m
par Aloha.host[15] y 182.66m
attr unit m
par Aloha.host[15] txrate 1000Bps
attr unit Bps
par Aloha.host[16] typename "\"Host\""
par Aloha.host[16] arrrate 0.4
par Aloha.host[16] packet_size 1B
attr unit B
par Aloha.host[16] x 4.79638m
attr unit m
par Aloha.host[16] y 153.165m
attr unit m
par Aloha.host[16] txrate 1000Bps
attr unit Bps
par Aloha.host[17] typename "\"Host\""
par Aloha.host[17] arrrate 0.4
par Aloha.host[17] packet_size 1B
attr unit B
par Aloha.host[17] x 111.771m
attr unit m
par Aloha.host[17] y 194.73m
attr unit m
par Aloha.host[17] txrate 1000Bps
attr unit Bps
par Aloha.host[18] typename "\"Host\""
par Aloha.host[18] arrrate 0.4
par Aloha.host[18] packet_size 1B
attr unit B
par Aloha.host[18] x 51.8505m
attr unit m
par Aloha.host[18] y 80.4721m
attr unit m
par Aloha.host[18] txrate 1000Bps
attr unit Bps
par Aloha.host[19] typename "\"Host\""
par Aloha.host[19] arrrate 0.4
par Aloha.host[19] packet_size 1B
attr unit B
par Aloha.host[19] x 83.0202m
attr unit m
par Aloha.host[19] y 110.554m
attr unit m
par Aloha.host[19] txrate 1000Bps
attr unit Bps
par Aloha.host[20] typename "\"Host\""
par Aloha.host[20] arrrate 0.4
par Aloha.host[20] packet_size 1B
attr unit B
par Aloha.host[20] x 56.705m
attr unit m
par Aloha.host[20] y 61.2721m
attr unit m
par Aloha.host[20] txrate 1000Bps
attr unit Bps
par Aloha.host[21] typename "\"Host\""
par Aloha.host[21] arrrate 0.4
par Aloha.host[21] packet_size 1B
attr unit B
par Aloha.host[21] x 138.628m
attr unit m
par Aloha.host[21] y 117.324m
attr unit m
par Aloha.host[21] txrate 1000Bps
attr unit Bps
par Aloha.host[22] typename "\"Host\""
par Aloha.host[22] arrrate 0.4
par Aloha.host[22] packet_size 1B
attr unit B
par Aloha.host[22] x 88.0907m
attr unit m
par Aloha.host[22] y 54.984m
attr unit m
par Aloha.host[22] txrate 1000Bps
attr unit Bps
par Aloha.host[23] typename "\"Host\""
par Aloha.host[23] arrrate 0.4
par Aloha.host[23] packet_size 1B
attr unit B
par Aloha.host[23] x 31.3735m
attr unit m
par Aloha.host[23] y 90.9216m
attr unit m
par Aloha.host[23] txrate 1000Bps
attr unit Bps
par Aloha.host[24] typename "\"Host\""
par Aloha.host[24] arrrate 0.4
par Aloha.host[24] packet_size 1B
attr unit B
par Aloha.host[24] x 108.93m
attr unit m
par Aloha.host[24] y 151.533m
attr unit m
par Aloha.host[24] txrate 1000Bps
attr unit Bps
par Aloha.host[25] typename "\"Host\""
par Aloha.host[25] arrrate 0.4
par Aloha.host[25] packet_size 1B
attr unit B
par Aloha.host[25] x 156.063m
attr unit m
par Aloha.host[25] y 163.514m
attr unit m
par Aloha.host[25] txrate 1000Bps
attr unit Bps
par Aloha.host[26] typename "\"Host\""
par Aloha.host[26] arrrate 0.4
par Aloha.host[26] packet_size 1B
attr unit B
par Aloha.host[26] x 61.2727m
attr unit m
par Aloha.host[26] y 51.5171m
attr unit m
par Aloha.host[26] txrate 1000Bps
attr unit Bps
par Aloha.host[27] typename "\"Host\""
par Aloha.host[27] arrrate 0.4
par Aloha.host[27] packet_size 1B
attr unit B
par Aloha.host[27] x 44.3916m
attr unit m
par Aloha.host[27] y 178.613m
attr unit m
par Aloha.host[27] txrate 1000Bps
attr unit Bps
par Aloha.host[28] typename "\"Host\""
par Aloha.host[28] arrrate 0.4
par Aloha.host[28] packet_size 1B
attr unit B
par Aloha.host[28] x 77.5943m
attr unit m
par Aloha.host[28] y 143.684m
attr unit m
par Aloha.host[28] txrate 1000Bps
attr unit Bps
par Aloha.host[29] typename "\"Host\""
par Aloha.host[29] arrrate 0.4
par Aloha.host[29] packet_size 1B
attr unit B
par Aloha.host[29] x 187.277m
attr unit m
par Aloha.host[29] y 4.1229m
attr unit m
par Aloha.host[29] txrate 1000Bps
attr unit Bps
par Aloha.host[30] typename "\"Host\""
par Aloha.host[30] arrrate 0.4
par Aloha.host[30] packet_size 1B
attr unit B
par Aloha.host[30] x 195.199m
attr unit m
par Aloha.host[30] y 28.5435m
attr unit m
par Aloha.host[30] txrate 1000Bps
attr unit Bps
par Aloha.host[31] typename "\"Host\""
par Aloha.host[31] arrrate 0.4
par Aloha.host[31] packet_size 1B
attr unit B
par Aloha.host[31] x 134.477m
attr unit m
par Aloha.host[31] y 65.0612m
attr unit m
par Aloha.host[31] txrate 1000Bps
attr unit Bps
par Aloha.host[32] typename "\"Host\""
par Aloha.host[32] arrrate 0.4
par Aloha.host[32] packet_size 1B
attr unit B
par Aloha.host[32] x 180.567m
attr unit m
par Aloha.host[32] y 161.786m
attr unit m
par Aloha.host[32] txrate 1000Bps
attr unit Bps
par Aloha.host[33] typename "\"Host\""
par Aloha.host[33] arrrate 0.4
par Aloha.host[33] packet_size 1B
attr unit B
par Aloha.host[33] x 169.15m
attr unit m
par Aloha.host[33] y 79.7982m
attr unit m
par Aloha.host[33] txrate 1000Bps
attr unit Bps
par Aloha.host[34] typename "\"Host\""
par Aloha.host[34] arrrate 0.4
par Aloha.host[34] packet_size 1B
attr unit B
par Aloha.host[34] x 75.5988m
attr unit m
par Aloha.host[34] y 84.9403m
attr unit m
par Aloha.host[34] txrate 1000Bps
attr unit Bps
par Aloha.host[35] typename "\"Host\""
par Aloha.host[35] arrrate 0.4
par Aloha.host[35] packet_size 1B
attr unit B
par Aloha.host[35] x 18.4434m
attr unit m
par Aloha.host[35] y 82.7437m
attr unit m
par Aloha.host[35] txrate 1000Bps
attr unit Bps
par Aloha.host[36] typename "\"Host\""
par Aloha.host[36] arrrate 0.4
par Aloha.host[36] packet_size 1B
attr unit B
par Aloha.host[36] x 130.682m
attr unit m
par Aloha.host[36] y 157.428m
attr unit m
par Aloha.host[36] txrate 1000Bps
attr unit Bps
par Aloha.host[37] typename "\"Host\""
par Aloha.host[37] arrrate 0.4
par Aloha.host[37] packet_size 1B
attr unit B
par Aloha.host[37] x 111.568m
attr unit m
par Aloha.host[37] y 142.713m
attr unit m
par Aloha.host[37] txrate 1000Bps
attr unit Bps
par Aloha.host[38] typename "\"Host\""
par Aloha.host[38] arrrate 0.4
par Aloha.host[38] packet_size 1B
attr unit B
par Aloha.host[38] x 72.313m
attr unit m
par Aloha.host[38] y 4.62351m
attr unit m
par Aloha.host[38] txrate 1000Bps
attr unit Bps
par Aloha.host[39] typename "\"Host\""
par Aloha.host[39] arrrate 0.4
par Aloha.host[39] packet_size 1B
attr unit B
par Aloha.host[39] x 45.0109m
attr unit m
par Aloha.host[39] y 63.1534m
attr unit m
par Aloha.host[39] txrate 1000Bps
attr unit Bps
par Aloha.host[40] typename "\"Host\""
par Aloha.host[40] arrrate 0.4
par Aloha.host[40] packet_size 1B
attr unit B
par Aloha.host[40] x 81.304m
attr unit m
par Aloha.host[40] y 112.554m
attr unit m
par Aloha.host[40] txrate 1000Bps
attr unit Bps
par Aloha.host[41] typename "\"Host\""
par Aloha.host[41] arrrate 0.4
par Aloha.host[41] packet_size 1B
attr unit B
par Aloha.host[41] x 93.788m
attr unit m
par Aloha.host[41] y 149.631m
attr unit m
par Aloha.host[41] txrate 1000Bps
attr unit Bps
par Aloha.host[42] typename "\"Host\""
par Aloha.host[42] arrrate 0.4
par Aloha.host[42] packet_size 1B
attr unit B
par Aloha.host[42] x 53.8471m
attr unit m
par Aloha.host[42] y 121.925m
attr unit m
par Aloha.host[42] txrate 1000Bps
attr unit Bps
par Aloha.host[43] typename "\"Host\""
par Aloha.host[43] arrrate 0.4
par Aloha.host[43] packet_size 1B
attr unit B
par Aloha.host[43] x 58.3586m
attr unit m
par Aloha.host[43] y 40.6709m
attr unit m
par Aloha.host[43] txrate 1000Bps
attr unit Bps
par Aloha.host[44] typename "\"Host\""
par Aloha.host[44] arrrate 0.4
par Aloha.host[44] packet_size 1B
attr unit B
par Aloha.host[44] x 91.5373m
attr unit m
par Aloha.host[44] y 130.726m
attr unit m
par Aloha.host[44] txrate 1000Bps
attr unit Bps
par Aloha.host[45] typename "\"Host\""
par Aloha.host[45] arrrate 0.4
par Aloha.host[45] packet_size 1B
attr unit B
par Aloha.host[45] x 172.107m
attr unit m
par Aloha.host[45] y 132.537m
attr unit m
par Aloha.host[45] txrate 1000Bps
attr unit Bps
par Aloha.host[46] typename "\"Host\""
par Aloha.host[46] arrrate 0.4
par Aloha.host[46] packet_size 1B
attr unit B
par Aloha.host[46] x 117.251m
attr unit m
par Aloha.host[46] y 174.214m
attr unit m
par Aloha.host[46] txrate 1000Bps
attr unit Bps
par Aloha.host[47] typename "\"Host\""
par Aloha.host[47] arrrate 0.4
par Aloha.host[47] packet_size 1B
attr unit B
par Aloha.host[47] x 56.6976m
attr unit m
par Aloha.host[47] y 162.246m
attr unit m
par Aloha.host[47] txrate 1000Bps
attr unit Bps
par Aloha.host[48] typename "\"Host\""
par Aloha.host[48] arrrate 0.4
par Aloha.host[48] packet_size 1B
attr unit B
par Aloha.host[48] x 55.5955m
attr unit m
par Aloha.host[48] y 74.8249m
attr unit m
par Aloha.host[48] txrate 1000Bps
attr unit Bps
par Aloha.host[49] typename "\"Host\""
par Aloha.host[49] arrrate 0.4
par Aloha.host[49] packet_size 1B
attr unit B
par Aloha.host[49] x 90.9244m
attr unit m
par Aloha.host[49] y 15.04m
attr unit m
par Aloha.host[49] txrate 1000Bps
attr unit Bps
par Aloha.host[50] typename "\"Host\""
par Aloha.host[50] arrrate 0.4
par Aloha.host[50] packet_size 1B
attr unit B
par Aloha.host[50] x 41.0821m
attr unit m
par Aloha.host[50] y 152.116m
attr unit m
par Aloha.host[50] txrate 1000Bps
attr unit Bps
par Aloha.host[51] typename "\"Host\""
par Aloha.host[51] arrrate 0.4
par Aloha.host[51] packet_size 1B
attr unit B
par Aloha.host[51] x 40.2757m
attr unit m
par Aloha.host[51] y 12.754m
attr unit m
par Aloha.host[51] txrate 1000Bps
attr unit Bps
par Aloha.host[52] typename "\"Host\""
par Aloha.host[52] arrrate 0.4
par Aloha.host[52] packet_size 1B
attr unit B
par Aloha.host[52] x 102.807m
attr unit m
par Aloha.host[52] y 168.208m
attr unit m
par Aloha.host[52] txrate 1000Bps
attr unit Bps
par Aloha.host[53] typename "\"Host\""
par Aloha.host[53] arrrate 0.4
par Aloha.host[53] packet_size 1B
attr unit B
par Aloha.host[53] x 17.4459m
attr unit m
par Aloha.host[53] y 138.527m
attr unit m
par Aloha.host[53] txrate 1000Bps
attr unit Bps
par Aloha.host[54] typename "\"Host\""
par Aloha.host[54] arrrate 0.4
par Aloha.host[54] packet_size 1B
attr unit B
par Aloha.host[54] x 96.7171m
attr unit m
par Aloha.host[54] y 89.1801m
attr unit m
par Aloha.host[54] txrate 1000Bps
attr unit Bps
par Aloha.host[55] typename "\"Host\""
par Aloha.host[55] arrrate 0.4
par Aloha.host[55] packet_size 1B
attr unit B
par Aloha.host[55] x 72.4352m
attr unit m
par Aloha.host[55] y 72.4681m
attr unit m
par Aloha.host[55] txrate 1000Bps
attr unit Bps
par Aloha.host[56] typename "\"Host\""
par Aloha.host[56] arrrate 0.4
par Aloha.host[56] packet_size 1B
attr unit B
par Aloha.host[56] x 141.537m
attr unit m
par Aloha.host[56] y 103.219m
attr unit m
par Aloha.host[56] txrate 1000Bps
attr unit Bps
par Aloha.host[57] typename "\"Host\""
par Aloha.host[57] arrrate 0.4
par Aloha.host[57] packet_size 1B
attr unit B
par Aloha.host[57] x 149.349m
attr unit m
par Aloha.host[57] y 91.4664m
attr unit m
par Aloha.host[57] txrate 1000Bps
attr unit Bps
par Aloha.host[58] typename "\"Host\""
par Aloha.host[58] arrrate 0.4
par Aloha.host[58] packet_size 1B
attr unit B
par Aloha.host[58] x 138.219m
attr unit m
par Aloha.host[58] y 161.672m
attr unit m
par Aloha.host[58] txrate 1000Bps
attr unit Bps
par Aloha.host[59] typename "\"Host\""
par Aloha.host[59] arrrate 0.4
par Aloha.host[59] packet_size 1B
attr unit B
par Aloha.host[59] x 137.836m
attr unit m
par Aloha.host[59] y 63.2569m
attr unit m
par Aloha.host[59] txrate 1000Bps
attr unit Bps
par Aloha.host[60] typename "\"Host\""
par Aloha.host[60] arrrate 0.4
par Aloha.host[60] packet_size 1B
attr unit B
par Aloha.host[60] x 74.72m
attr unit m
par Aloha.host[60] y 168.757m
attr unit m
par Aloha.host[60] txrate 1000Bps
attr unit Bps
par Aloha.host[61] typename "\"Host\""
par Aloha.host[61] arrrate 0.4
par Aloha.host[61] packet_size 1B
attr unit B
par Aloha.host[61] x 133.627m
attr unit m
par Aloha.host[61] y 97.8583m
attr unit m
par Aloha.host[61] txrate 1000Bps
attr unit Bps
par Aloha.host[62] typename "\"Host\""
par Aloha.host[62] arrrate 0.4
par Aloha.host[62] packet_size 1B
attr unit B
par Aloha.host[62] x 67.9697m
attr unit m
par Aloha.host[62] y 108.024m
attr unit m
par Aloha.host[62] txrate 1000Bps
attr unit Bps
par Aloha.host[63] typename "\"Host\""
par Aloha.host[63] arrrate 0.4
par Aloha.host[63] packet_size 1B
attr unit B
par Aloha.host[63] x 114.559m
attr unit m
par Aloha.host[63] y 165.226m
attr unit m
par Aloha.host[63] txrate 1000Bps
attr unit Bps
par Aloha.host[64] typename "\"Host\""
par Aloha.host[64] arrrate 0.4
par Aloha.host[64] packet_size 1B
attr unit B
par Aloha.host[64] x 65.1614m
attr unit m
par Aloha.host[64] y 104.321m
attr unit m
par Aloha.host[64] txrate 1000Bps
attr unit Bps
par Aloha.host[65] typename "\"Host\""
par Aloha.host[65] arrrate 0.4
par Aloha.host[65] packet_size 1B
attr unit B
par Aloha.host[65] x 89.029m
attr unit m
par Aloha.host[65] y 28.5199m
attr unit m
par Aloha.host[65] txrate 1000Bps
attr unit Bps
par Aloha.host[66] typename "\"Host\""
par Aloha.host[66] arrrate 0.4
par Aloha.host[66] packet_size 1B
attr unit B
par Aloha.host[66] x 12.3058m
attr unit m
par Aloha.host[66] y 60.4527m
attr unit m
par Aloha.host[66] txrate 1000Bps
attr unit Bps
par Aloha.host[67] typename "\"Host\""
par Aloha.host[67] arrrate 0.4
par Aloha.host[67] packet_size 1B
attr unit B
par Aloha.host[67] x 48.5351m
attr unit m
par Aloha.host[67] y 161.405m
attr unit m
par Aloha.host[67] txrate 1000Bps
attr unit Bps
par Aloha.host[68] typename "\"Host\""
par Aloha.host[68] arrrate 0.4
par Aloha.host[68] packet_size 1B
attr unit B
par Aloha.host[68] x 194.321m
attr unit m
par Aloha.host[68] y 63.899m
attr unit m
par Aloha.host[68] txrate 1000Bps
attr unit Bps
par Aloha.host[69] typename "\"Host\""
par Aloha.host[69] arrrate 0.4
par Aloha.host[69] packet_size 1B
attr unit B
par Aloha.host[69] x 46.1168m
attr unit m
par Aloha.host[69] y 4.24515m
attr unit m
par Aloha.host[69] txrate 1000Bps
attr unit Bps
par Aloha.host[70] typename "\"Host\""
par Aloha.host[70] arrrate 0.4
par Aloha.host[70] packet_size 1B
attr unit B
par Aloha.host[70] x 138.296m
attr unit m
par Aloha.host[70] y 96.4892m
attr unit m
par Aloha.host[70] txrate 1000Bps
attr unit Bps
par Aloha.host[71] typename "\"Host\""
par Aloha.host[71] arrrate 0.4
par Aloha.host[71] packet_size 1B
attr unit B
par Aloha.host[71] x 130.095m
attr unit m
par Aloha.host[71] y 5.20525m
attr unit m
par Aloha.host[71] txrate 1000Bps
attr unit Bps
par Aloha.host[72] typename "\"Host\""
par Aloha.host[72] arrrate 0.4
par Aloha.host[72] packet_size 1B
attr unit B
par Aloha.host[72] x 144.788m
attr unit m
par Aloha.host[72] y 101.115m
attr unit m
par Aloha.host[72] txrate 1000Bps
attr unit Bps
par Aloha.host[73] typename "\"Host\""
par Aloha.host[73] arrrate 0.4
par Aloha.host[73] packet_size 1B
attr unit B
par Aloha.host[73] x 95.0177m
attr unit m
par Aloha.host[73] y 183.606m
attr unit m
par Aloha.host[73] txrate 1000Bps
attr unit Bps
par Aloha.host[74] typename "\"Host\""
par Aloha.host[74] arrrate 0.4
par Aloha.host[74] packet_size 1B
attr unit B
par Aloha.host[74] x 119.333m
attr unit m
par Aloha.host[74] y 41.3932m
attr unit m
par Aloha.host[74] txrate 1000Bps
attr unit Bps
par Aloha.host[75] typename "\"Host\""
par Aloha.host[75] arrrate 0.4
par Aloha.host[75] packet_size 1B
attr unit B
par Aloha.host[75] x 13.3939m
attr unit m
par Aloha.host[75] y 185.147m
attr unit m
par Aloha.host[75] txrate 1000Bps
attr unit Bps
par Aloha.host[76] typename "\"Host\""
par Aloha.host[76] arrrate 0.4
par Aloha.host[76] packet_size 1B
attr unit B
par Aloha.host[76] x 14.5124m
attr unit m
par Aloha.host[76] y 55.4646m
attr unit m
par Aloha.host[76] txrate 1000Bps
attr unit Bps
par Aloha.host[77] typename "\"Host\""
par Aloha.host[77] arrrate 0.4
par Aloha.host[77] packet_size 1B
attr unit B
par Aloha.host[77] x 39.7952m
attr unit m
par Aloha.host[77] y 35.2124m
attr unit m
par Aloha.host[77] txrate 1000Bps
attr unit Bps
par Aloha.host[78] typename "\"Host\""
par Aloha.host[78] arrrate 0.4
par Aloha.host[78] packet_size 1B
attr unit B
par Aloha.host[78] x 30.3722m
attr unit m
par Aloha.host[78] y 198.06m
attr unit m
par Aloha.host[78] txrate 1000Bps
attr unit Bps
par Aloha.host[79] typename "\"Host\""
par Aloha.host[79] arrrate 0.4
par Aloha.host[79] packet_size 1B
attr unit B
par Aloha.host[79] x 20.0209m
attr unit m
par Aloha.host[79] y 138.53m
attr unit m
par Aloha.host[79] txrate 1000Bps
attr unit Bps
par Aloha.host[80] typename "\"Host\""
par Aloha.host[80] arrrate 0.4
par Aloha.host[80] packet_size 1B
attr unit B
par Aloha.host[80] x 25.8588m
attr unit m
par Aloha.host[80] y 150.428m
attr unit m
par Aloha.host[80] txrate 1000Bps
attr unit Bps
par Aloha.host[81] typename "\"Host\""
par Aloha.host[81] arrrate 0.4
par Aloha.host[81] packet_size 1B
attr unit B
par Aloha.host[81] x 110.656m
attr unit m
par Aloha.host[81] y 23.2433m
attr unit m
par Aloha.host[81] txrate 1000Bps
attr unit Bps
par Aloha.host[82] typename "\"Host\""
par Aloha.host[82] arrrate 0.4
par Aloha.host[82] packet_size 1B
attr unit B
par Aloha.host[82] x 37.563m
attr unit m
par Aloha.host[82] y 17.2001m
attr unit m
par Aloha.host[82] txrate 1000Bps
attr unit Bps
par Aloha.host[83] typename "\"Host\""
par Aloha.host[83] arrrate 0.4
par Aloha.host[83] packet_size 1B
attr unit B
par Aloha.host[83] x 190.42m
attr unit m
par Aloha.host[83] y 133.125m
attr unit m
par Aloha.host[83] txrate 1000Bps
attr unit Bps
par Aloha.host[84] typename "\"Host\""
par Aloha.host[84] arrrate 0.4
par Aloha.host[84] packet_size 1B
attr unit B
par Aloha.host[84] x 136.322m
attr unit m
par Aloha.host[84] y 65.9143m
attr unit m
par Aloha.host[84] txrate 1000Bps
attr unit Bps
par Aloha.host[85] typename "\"Host\""
par Aloha.host[85] arrrate 0.4
par Aloha.host[85] packet_size 1B
attr unit B
par Aloha.host[85] x 108.204m
attr unit m
par Aloha.host[85] y 72.3301m
attr unit m
par Aloha.host[85] txrate 1000Bps
attr unit Bps
par Aloha.host[86] typename "\"Host\""
par Aloha.host[86] arrrate 0.4
par Aloha.host[86] packet_size 1B
attr unit B
par Aloha.host[86] x 141.436m
attr unit m
par Aloha.host[86] y 105.222m
attr unit m
par Aloha.host[86] txrate 1000Bps
attr unit Bps
par Aloha.host[87] typename "\"Host\""
par Aloha.host[87] arrrate 0.4
par Aloha.host[87] packet_size 1B
attr unit B
par Aloha.host[87] x 52.7773m
attr unit m
par Aloha.host[87] y 84.946m
attr unit m
par Aloha.host[87] txrate 1000Bps
attr unit Bps
par Aloha.host[88] typename "\"Host\""
par Aloha.host[88] arrrate 0.4
par Aloha.host[88] packet_size 1B
attr unit B
par Aloha.host[88] x 185.345m
attr unit m
par Aloha.host[88] y 163.956m
attr unit m
par Aloha.host[88] txrate 1000Bps
attr unit Bps
par Aloha.host[89] typename "\"Host\""
par Aloha.host[89] arrrate 0.4
par Aloha.host[89] packet_size 1B
attr unit B
par Aloha.host[89] x 167.839m
attr unit m
par Aloha.host[89] y 114.257m
attr unit m
par Aloha.host[89] txrate 1000Bps
attr unit Bps
par Aloha.host[90] typename "\"Host\""
par Aloha.host[90] arrrate 0.4
par Aloha.host[90] packet_size 1B
attr unit B
par Aloha.host[90] x 145.264m
attr unit m
par Aloha.host[90] y 176.222m
attr unit m
par Aloha.host[90] txrate 1000Bps
attr unit Bps
par Aloha.host[91] typename "\"Host\""
par Aloha.host[91] arrrate 0.4
par Aloha.host[91] packet_size 1B
attr unit B
par Aloha.host[91] x 96.048m
attr unit m
par Aloha.host[91] y 160.121m
attr unit m
par Aloha.host[91] txrate 1000Bps
attr unit Bps
par Aloha.host[92] typename "\"Host\""
par Aloha.host[92] arrrate 0.4
par Aloha.host[92] packet_size 1B
attr unit B
par Aloha.host[92] x 168.421m
attr unit m
par Aloha.host[92] y 69.985m
attr unit m
par Aloha.host[92] txrate 1000Bps
attr unit Bps
par Aloha.host[93] typename "\"Host\""
par Aloha.host[93] arrrate 0.4
par Aloha.host[93] packet_size 1B
attr unit B
par Aloha.host[93] x 148.95m
attr unit m
par Aloha.host[93] y 154.548m
attr unit m
par Aloha.host[93] txrate 1000Bps
attr unit Bps
par Aloha.host[94] typename "\"Host\""
par Aloha.host[94] arrrate 0.4
par Aloha.host[94] packet_size 1B
attr unit B
par Aloha.host[94] x 132.065m
attr unit m
par Aloha.host[94] y 179.299m
attr unit m
par Aloha.host[94] txrate 1000Bps
attr unit Bps
par Aloha.host[95] typename "\"Host\""
par Aloha.host[95] arrrate 0.4
par Aloha.host[95] packet_size 1B
attr unit B
par Aloha.host[95] x 182.795m
attr unit m
par Aloha.host[95] y 157.146m
attr unit m
par Aloha.host[95] txrate 1000Bps
attr unit Bps
par Aloha.host[96] typename "\"Host\""
par Aloha.host[96] arrrate 0.4
par Aloha.host[96] packet_size 1B
attr unit B
par Aloha.host[96] x 126.733m
attr unit m
par Aloha.host[96] y 56.6815m
attr unit m
par Aloha.host[96] txrate 1000Bps
attr unit Bps
par Aloha.host[97] typename "\"Host\""
par Aloha.host[97] arrrate 0.4
par Aloha.host[97] packet_size 1B
attr unit B
par Aloha.host[97] x 73.1881m
attr unit m
par Aloha.host[97] y 176.382m
attr unit m
par Aloha.host[97] txrate 1000Bps
attr unit Bps
par Aloha.host[98] typename "\"Host\""
par Aloha.host[98] arrrate 0.4
par Aloha.host[98] packet_size 1B
attr unit B
par Aloha.host[98] x 110.569m
attr unit m
par Aloha.host[98] y 109.077m
attr unit m
par Aloha.host[98] txrate 1000Bps
attr unit Bps
par Aloha.host[99] typename "\"Host\""
par Aloha.host[99] arrrate 0.4
par Aloha.host[99] packet_size 1B
attr unit B
par Aloha.host[99] x 39.2761m
attr unit m
par Aloha.host[99] y 165.604m
attr unit m
par Aloha.host[99] txrate 1000Bps
attr unit Bps
par Aloha.host[100] typename "\"Host\""
par Aloha.host[100] arrrate 0.4
par Aloha.host[100] packet_size 1B
attr unit B
par Aloha.host[100] x 38.4145m
attr unit m
par Aloha.host[100] y 46.7384m
attr unit m
par Aloha.host[100] txrate 1000Bps
attr unit Bps
par Aloha.host[101] typename "\"Host\""
par Aloha.host[101] arrrate 0.4
par Aloha.host[101] packet_size 1B
attr unit B
par Aloha.host[101] x 145.134m
attr unit m
par Aloha.host[101] y 40.5755m
attr unit m
par Aloha.host[101] txrate 1000Bps
attr unit Bps
par Aloha.host[102] typename "\"Host\""
par Aloha.host[102] arrrate 0.4
par Aloha.host[102] packet_size 1B
attr unit B
par Aloha.host[102] x 156.987m
attr unit m
par Aloha.host[102] y 191.667m
attr unit m
par Aloha.host[102] txrate 1000Bps
attr unit Bps
par Aloha.host[103] typename "\"Host\""
par Aloha.host[103] arrrate 0.4
par Aloha.host[103] packet_size 1B
attr unit B
par Aloha.host[103] x 194.42m
attr unit m
par Aloha.host[103] y 153.231m
attr unit m
par Aloha.host[103] txrate 1000Bps
attr unit Bps
par Aloha.host[104] typename "\"Host\""
par Aloha.host[104] arrrate 0.4
par Aloha.host[104] packet_size 1B
attr unit B
par Aloha.host[104] x 170.194m
attr unit m
par Aloha.host[104] y 37.6502m
attr unit m
par Aloha.host[104] txrate 1000Bps
attr unit Bps
par Aloha.host[105] typename "\"Host\""
par Aloha.host[105] arrrate 0.4
par Aloha.host[105] packet_size 1B
attr unit B
par Aloha.host[105] x 108.719m
attr unit m
par Aloha.host[105] y 93.8763m
attr unit m
par Aloha.host[105] txrate 1000Bps
attr unit Bps
par Aloha.host[106] typename "\"Host\""
par Aloha.host[106] arrrate 0.4
par Aloha.host[106] packet_size 1B
attr unit B
par Aloha.host[106] x 17.9582m
attr unit m
par Aloha.host[106] y 100.506m
attr unit m
par Aloha.host[106] txrate 1000Bps
attr unit Bps
par Aloha.host[107] typename "\"Host\""
par Aloha.host[107] arrrate 0.4
par Aloha.host[107] packet_size 1B
attr unit B
par Aloha.host[107] x 97.7746m
attr unit m
par Aloha.host[107] y 34.4726m
attr unit m
par Aloha.host[107] txrate 1000Bps
attr unit Bps
par Aloha.host[108] typename "\"Host\""
par Aloha.host[108] arrrate 0.4
par Aloha.host[108] packet_size 1B
attr unit B
par Aloha.host[108] x 185.587m
attr unit m
par Aloha.host[108] y 59.6814m
attr unit m
par Aloha.host[108] txrate 1000Bps
attr unit Bps
par Aloha.host[109] typename "\"Host\""
par Aloha.host[109] arrrate 0.4
par Aloha.host[109] packet_size 1B
attr unit B
par Aloha.host[109] x 157.524m
attr unit m
par Aloha.host[109] y 53.7615m
attr unit m
par Aloha.host[109] txrate 1000Bps
attr unit Bps
par Aloha.host[110] typename "\"Host\""
par Aloha.host[110] arrrate 0.4
par Aloha.host[110] packet_size 1B
attr unit B
par Aloha.host[110] x 97.0188m
attr unit m
par Aloha.host[110] y 177.38m
attr unit m
par Aloha.host[110] txrate 1000Bps
attr unit Bps
par Aloha.host[111] typename "\"Host\""
par Aloha.host[111] arrrate 0.4
par Aloha.host[111] packet_size 1B
attr unit B
par Aloha.host[111] x 91.0559m
attr unit m
par Aloha.host[111] y 100.651m
attr unit m
par Aloha.host[111] txrate 1000Bps
attr unit Bps
par Aloha.host[112] typename "\"Host\""
par Aloha.host[112] arrrate 0.4
par Aloha.host[112] packet_size 1B
attr unit B
par Aloha.host[112] x 43.5972m
attr unit m
par Aloha.host[112] y 114.448m
attr unit m
par Aloha.host[112] txrate 1000Bps
attr unit Bps
par Aloha.host[113] typename "\"Host\""
par Aloha.host[113] arrrate 0.4
par Aloha.host[113] packet_size 1B
attr unit B
par Aloha.host[113] x 35.4427m
attr unit m
par Aloha.host[113] y 68.4839m
attr unit m
par Aloha.host[113] txrate 1000Bps
attr unit Bps
par Aloha.host[114] typename "\"Host\""
par Aloha.host[114] arrrate 0.4
par Aloha.host[114] packet_size 1B
attr unit B
par Aloha.host[114] x 14.7247m
attr unit m
par Aloha.host[114] y 121.929m
attr unit m
par Aloha.host[114] txrate 1000Bps
attr unit Bps
par Aloha.host[115] typename "\"Host\""
par Aloha.host[115] arrrate 0.4
par Aloha.host[115] packet_size 1B
attr unit B
par Aloha.host[115] x 178.479m
attr unit m
par Aloha.host[115] y 24.1235m
attr unit m
par Aloha.host[115] txrate 1000Bps
attr unit Bps
par Aloha.host[116] typename "\"Host\""
par Aloha.host[116] arrrate 0.4
par Aloha.host[116] packet_size 1B
attr unit B
par Aloha.host[116] x 128.035m
attr unit m
par Aloha.host[116] y 7.78362m
attr unit m
par Aloha.host[116] txrate 1000Bps
attr unit Bps
par Aloha.host[117] typename "\"Host\""
par Aloha.host[117] arrrate 0.4
par Aloha.host[117] packet_size 1B
attr unit B
par Aloha.host[117] x 28.6665m
attr unit m
par Aloha.host[117] y 199.995m
attr unit m
par Aloha.host[117] txrate 1000Bps
attr unit Bps
par Aloha.host[118] typename "\"Host\""
par Aloha.host[118] arrrate 0.4
par Aloha.host[118] packet_size 1B
attr unit B
par Aloha.host[118] x 82.8254m
attr unit m
par Aloha.host[118] y 53.5896m
attr unit m
par Aloha.host[118] txrate 1000Bps
attr unit Bps
par Aloha.host[119] typename "\"Host\""
par Aloha.host[119] arrrate 0.4
par Aloha.host[119] packet_size 1B
attr unit B
par Aloha.host[119] x 9.82179m
attr unit m
par Aloha.host[119] y 51.4413m
attr unit m
par Aloha.host[119] txrate 1000Bps
attr unit Bps
par Aloha.host[120] typename "\"Host\""
par Aloha.host[120] arrrate 0.4
par Aloha.host[120] packet_size 1B
attr unit B
par Aloha.host[120] x 41.8747m
attr unit m
par Aloha.host[120] y 55.3283m
attr unit m
par Aloha.host[120] txrate 1000Bps
attr unit Bps
par Aloha.host[121] typename "\"Host\""
par Aloha.host[121] arrrate 0.4
par Aloha.host[121] packet_size 1B
attr unit B
par Aloha.host[121] x 146.142m
attr unit m
par Aloha.host[121] y 50.3483m
attr unit m
par Aloha.host[121] txrate 1000Bps
attr unit Bps
par Aloha.host[122] typename "\"Host\""
par Aloha.host[122] arrrate 0.4
par Aloha.host[122] packet_size 1B
attr unit B
par Aloha.host[122] x 130.225m
attr unit m
par Aloha.host[122] y 179.547m
attr unit m
par Aloha.host[122] txrate 1000Bps
attr unit Bps
par Aloha.host[123] typename "\"Host\""
par Aloha.host[123] arrrate 0.4
par Aloha.host[123] packet_size 1B
attr unit B
par Aloha.host[123] x 95.7957m
attr unit m
par Aloha.host[123] y 167.049m
attr unit m
par Aloha.host[123] txrate 1000Bps
attr unit Bps
par Aloha.host[124] typename "\"Host\""
par Aloha.host[124] arrrate 0.4
par Aloha.host[124] packet_size 1B
attr unit B
par Aloha.host[124] x 54.9561m
attr unit m
par Aloha.host[124] y 29.2632m
attr unit m
par Aloha.host[124] txrate 1000Bps
attr unit Bps
par Aloha.host[125] typename "\"Host\""
par Aloha.host[125] arrrate 0.4
par Aloha.host[125] packet_size 1B
attr unit B
par Aloha.host[125] x 130.445m
attr unit m
par Aloha.host[125] y 199.089m
attr unit m
par Aloha.host[125] txrate 1000Bps
attr unit Bps
par Aloha.host[126] typename "\"Host\""
par Aloha.host[126] arrrate 0.4
par Aloha.host[126] packet_size 1B
attr unit B
par Aloha.host[126] x 191.29m
attr unit m
par Aloha.host[126] y 71.1458m
attr unit m
par Aloha.host[126] txrate 1000Bps
attr unit Bps
par Aloha.host[127] typename "\"Host\""
par Aloha.host[127] arrrate 0.4
par Aloha.host[127] packet_size 1B
attr unit B
par Aloha.host[127] x 87.1041m
attr unit m
par Aloha.host[127] y 109.426m
attr unit m
par Aloha.host[127] txrate 1000Bps
attr unit Bps
par Aloha.host[128] typename "\"Host\""
par Aloha.host[128] arrrate 0.4
par Aloha.host[128] packet_size 1B
attr unit B
par Aloha.host[128] x 14.0265m
attr unit m
par Aloha.host[128] y 98.3631m
attr unit m
par Aloha.host[128] txrate 1000Bps
attr unit Bps
par Aloha.host[129] typename "\"Host\""
par Aloha.host[129] arrrate 0.4
par Aloha.host[129] packet_size 1B
attr unit B
par Aloha.host[129] x 11.5463m
attr unit m
par Aloha.host[129] y 25.9317m
attr unit m
par Aloha.host[129] txrate 1000Bps
attr unit Bps
par Aloha.host[130] typename "\"Host\""
par Aloha.host[130] arrrate 0.4
par Aloha.host[130] packet_size 1B
attr unit B
par Aloha.host[130] x 16.5742m
attr unit m
par Aloha.host[130] y 172.011m
attr unit m
par Aloha.host[130] txrate 1000Bps
attr unit Bps
par Aloha.host[131] typename "\"Host\""
par Aloha.host[131] arrrate 0.4
par Aloha.host[131] packet_size 1B
attr unit B
par Aloha.host[131] x 191.941m
attr unit m
par Aloha.host[131] y 43.6796m
attr unit m
par Aloha.host[131] txrate 1000Bps
attr unit Bps
par Aloha.host[132] typename "\"Host\""
par Aloha.host[132] arrrate 0.4
par Aloha.host[132] packet_size 1B
attr unit B
par Aloha.host[132] x 108.152m
attr unit m
par Aloha.host[132] y 164.866m
attr unit m
par Aloha.host[132] txrate 1000Bps
attr unit Bps
par Aloha.host[133] typename "\"Host\""
par Aloha.host[133] arrrate 0.4
par Aloha.host[133] packet_size 1B
attr unit B
par Aloha.host[133] x 167.492m
attr unit m
par Aloha.host[133] y 199.657m
attr unit m
par Aloha.host[133] txrate 1000Bps
attr unit Bps
par Aloha.host[134] typename "\"Host\""
par Aloha.host[134] arrrate 0.4
par Aloha.host[134] packet_size 1B
attr unit B
par Aloha.host[134] x 34.0067m
attr unit m
par Aloha.host[134] y 198.259m
attr unit m
par Aloha.host[134] txrate 1000Bps
attr unit Bps
par Aloha.host[135] typename "\"Host\""
par Aloha.host[135] arrrate 0.4
par Aloha.host[135] packet_size 1B
attr unit B
par Aloha.host[135] x 52.069m
attr unit m
par Aloha.host[135] y 31.534m
attr unit m
par Aloha.host[135] txrate 1000Bps
attr unit Bps
par Aloha.host[136] typename "\"Host\""
par Aloha.host[136] arrrate 0.4
par Aloha.host[136] packet_size 1B
attr unit B
par Aloha.host[136] x 138.396m
attr unit m
par Aloha.host[136] y 94.1332m
attr unit m
par Aloha.host[136] txrate 1000Bps
attr unit Bps
par Aloha.host[137] typename "\"Host\""
par Aloha.host[137] arrrate 0.4
par Aloha.host[137] packet_size 1B
attr unit B
par Aloha.host[137] x 179.114m
attr unit m
par Aloha.host[137] y 141.486m
attr unit m
par Aloha.host[137] txrate 1000Bps
attr unit Bps
par Aloha.host[138] typename "\"Host\""
par Aloha.host[138] arrrate 0.4
par Aloha.host[138] packet_size 1B
attr unit B
par Aloha.host[138] x 68.1377m
attr unit m
par Aloha.host[138] y 68.0012m
attr unit m
par Aloha.host[138] txrate 1000Bps
attr unit Bps
par Aloha.host[139] typename "\"Host\""
par Aloha.host[139] arrrate 0.4
par Aloha.host[139] packet_size 1B
attr unit B
par Aloha.host[139] x 12.9346m
attr unit m
par Aloha.host[139] y 139.35m
attr unit m
par Aloha.host[139] txrate 1000Bps
attr unit Bps
par Aloha.host[140] typename "\"Host\""
par Aloha.host[140] arrrate 0.4
par Aloha.host[140] packet_size 1B
attr unit B
par Aloha.host[140] x 172.824m
attr unit m
par Aloha.host[140] y 149.682m
attr unit m
par Aloha.host[140] txrate 1000Bps
attr unit Bps
par Aloha.host[141] typename "\"Host\""
par Aloha.host[141] arrrate 0.4
par Aloha.host[141] packet_size 1B
attr unit B
par Aloha.host[141] x 58.1745m
attr unit m
par Aloha.host[141] y 163.407m
attr unit m
par Aloha.host[141] txrate 1000Bps
attr unit Bps
par Aloha.host[142] typename "\"Host\""
par Aloha.host[142] arrrate 0.4
par Aloha.host[142] packet_size 1B
attr unit B
par Aloha.host[142] x 148.216m
attr unit m
par Aloha.host[142] y 169.544m
attr unit m
par Aloha.host[142] txrate 1000Bps
attr unit Bps
par Aloha.host[143] typename "\"Host\""
par Aloha.host[143] arrrate 0.4
par Aloha.host[143] packet_size 1B
attr unit B
par Aloha.host[143] x 31.6067m
attr unit m
par Aloha.host[143] y 16.3142m
attr unit m
par Aloha.host[143] txrate 1000Bps
attr unit Bps
par Aloha.host[144] typename "\"Host\""
par Aloha.host[144] arrrate 0.4
par Aloha.host[144] packet_size 1B
attr unit B
par Aloha.host[144] x 138.993m
attr unit m
par Aloha.host[144] y 61.5367m
attr unit m
par Aloha.host[144] txrate 1000Bps
attr unit Bps
par Aloha.host[145] typename "\"Host\""
par Aloha.host[145] arrrate 0.4
par Aloha.host[145] packet_size 1B
attr unit B
par Aloha.host[145] x 168.284m
attr unit m
par Aloha.host[145] y 112.197m
attr unit m
par Aloha.host[145] txrate 1000Bps
attr unit Bps
par Aloha.host[146] typename "\"Host\""
par Aloha.host[146] arrrate 0.4
par Aloha.host[146] packet_size 1B
attr unit B
par Aloha.host[146] x 145.43m
attr unit m
par Aloha.host[146] y 183.972m
attr unit m
par Aloha.host[146] txrate 1000Bps
attr unit Bps
par Aloha.host[147] typename "\"Host\""
par Aloha.host[147] arrrate 0.4
par Aloha.host[147] packet_size 1B
attr unit B
par Aloha.host[147] x 71.8215m
attr unit m
par Aloha.host[147] y 18.9763m
attr unit m
par Aloha.host[147] txrate 1000Bps
attr unit Bps
par Aloha.host[148] typename "\"Host\""
par Aloha.host[148] arrrate 0.4
par Aloha.host[148] packet_size 1B
attr unit B
par Aloha.host[148] x 145.338m
attr unit m
par Aloha.host[148] y 81.1798m
attr unit m
par Aloha.host[148] txrate 1000Bps
attr unit Bps
par Aloha.host[149] typename "\"Host\""
par Aloha.host[149] arrrate 0.4
par Aloha.host[149] packet_size 1B
attr unit B
par Aloha.host[149] x 27.8934m
attr unit m
par Aloha.host[149] y 107.693m
attr unit m
par Aloha.host[149] txrate 1000Bps
attr unit Bps
par Aloha.host[150] typename "\"Host\""
par Aloha.host[150] arrrate 0.4
par Aloha.host[150] packet_size 1B
attr unit B
par Aloha.host[150] x 62.7638m
attr unit m
par Aloha.host[150] y 129.915m
attr unit m
par Aloha.host[150] txrate 1000Bps
attr unit Bps
par Aloha.host[151] typename "\"Host\""
par Aloha.host[151] arrrate 0.4
par Aloha.host[151] packet_size 1B
attr unit B
par Aloha.host[151] x 83.9166m
attr unit m
par Aloha.host[151] y 61.9923m
attr unit m
par Aloha.host[151] txrate 1000Bps
attr unit Bps
par Aloha.host[152] typename "\"Host\""
par Aloha.host[152] arrrate 0.4
par Aloha.host[152] packet_size 1B
attr unit B
par Aloha.host[152] x 175.442m
attr unit m
par Aloha.host[152] y 168.271m
attr unit m
par Aloha.host[152] txrate 1000Bps
attr unit Bps
par Aloha.host[153] typename "\"Host\""
par Aloha.host[153] arrrate 0.4
par Aloha.host[153] packet_size 1B
attr unit B
par Aloha.host[153] x 30.748m
attr unit m
par Aloha.host[153] y 99.333m
attr unit m
par Aloha.host[153] txrate 1000Bps
attr unit Bps
par Aloha.host[154] typename "\"Host\""
par Aloha.host[154] arrrate 0.4
par Aloha.host[154] packet_size 1B
attr unit B
par Aloha.host[154] x 176.025m
attr unit m
par Aloha.host[154] y 140.748m
attr unit m
par Aloha.host[154] txrate 1000Bps
attr unit Bps
par Aloha.host[155] typename "\"Host\""
par Aloha.host[155] arrrate 0.4
par Aloha.host[155] packet_size 1B
attr unit B
par Aloha.host[155] x 159.793m
attr unit m
par Aloha.host[155] y 135.777m
attr unit m
par Aloha.host[155] txrate 1000Bps
attr unit Bps
par Aloha.host[156] typename "\"Host\""
par Aloha.host[156] arrrate 0.4
par Aloha.host[156] packet_size 1B
attr unit B
par Aloha.host[156] x 194.325m
attr unit m
par Aloha.host[156] y 124.681m
attr unit m
par Aloha.host[156] txrate 1000Bps
attr unit Bps
par Aloha.host[157] typename "\"Host\""
par Aloha.host[157] arrrate 0.4
par Aloha.host[157] packet_size 1B
attr unit B
par Aloha.host[157] x 73.5406m
attr unit m
par Aloha.host[157] y 199.562m
attr unit m
par Aloha.host[157] txrate 1000Bps
attr unit Bps
par Aloha.host[158] typename "\"Host\""
par Aloha.host[158] arrrate 0.4
par Aloha.host[158] packet_size 1B
attr unit B
par Aloha.host[158] x 40.988m
attr unit m
par Aloha.host[158] y 31.9294m
attr unit m
par Aloha.host[158] txrate 1000Bps
attr unit Bps
par Aloha.host[159] typename "\"Host\""
par Aloha.host[159] arrrate 0.4
par Aloha.host[159] packet_size 1B
attr unit B
par Aloha.host[159] x 48.1141m
attr unit m
par Aloha.host[159] y 163.908m
attr unit m
par Aloha.host[159] txrate 1000Bps
attr unit Bps
par Aloha.host[160] typename "\"Host\""
par Aloha.host[160] arrrate 0.4
par Aloha.host[160] packet_size 1B
attr unit B
par Aloha.host[160] x 165.573m
attr unit m
par Aloha.host[160] y 60.4997m
attr unit m
par Aloha.host[160] txrate 1000Bps
attr unit Bps
par Aloha.host[161] typename "\"Host\""
par Aloha.host[161] arrrate 0.4
par Aloha.host[161] packet_size 1B
attr unit B
par Aloha.host[161] x 193.046m
attr unit m
par Aloha.host[161] y 21.1843m
attr unit m
par Aloha.host[161] txrate 1000Bps
attr unit Bps
par Aloha.host[162] typename "\"Host\""
par Aloha.host[162] arrrate 0.4
par Aloha.host[162] packet_size 1B
attr unit B
par Aloha.host[162] x 139.762m
attr unit m
par Aloha.host[162] y 57.2608m
attr unit m
par Aloha.host[162] txrate 1000Bps
attr unit Bps
par Aloha.host[163] typename "\"Host\""
par Aloha.host[163] arrrate 0.4
par Aloha.host[163] packet_size 1B
attr unit B
par Aloha.host[163] x 96.4994m
attr unit m
par Aloha.host[163] y 142.721m
attr unit m
par Aloha.host[163] txrate 1000Bps
attr unit Bps
par Aloha.host[164] typename "\"Host\""
par Aloha.host[164] arrrate 0.4
par Aloha.host[164] packet_size 1B
attr unit B
par Aloha.host[164] x 57.41m
attr unit m
par Aloha.host[164] y 47.6873m
attr unit m
par Aloha.host[164] txrate 1000Bps
attr unit Bps
par Aloha.host[165] typename "\"Host\""
par Aloha.host[165] arrrate 0.4
par Aloha.host[165] packet_size 1B
attr unit B
par Aloha.host[165] x 166.738m
attr unit m
par Aloha.host[165] y 139.533m
attr unit m
par Aloha.host[165] txrate 1000Bps
attr unit Bps
par Aloha.host[166] typename "\"Host\""
par Aloha.host[166] arrrate 0.4
par Aloha.host[166] packet_size 1B
attr unit B
par Aloha.host[166] x 174.436m
attr unit m
par Aloha.host[166] y 5.10557m
attr unit m
par Aloha.host[166] txrate 1000Bps
attr unit Bps
par Aloha.host[167] typename "\"Host\""
par Aloha.host[167] arrrate 0.4
par Aloha.host[167] packet_size 1B
attr unit B
par Aloha.host[167] x 18.4263m
attr unit m
par Aloha.host[167] y 185.7m
attr unit m
par Aloha.host[167] txrate 1000Bps
attr unit Bps
par Aloha.host[168] typename "\"Host\""
par Aloha.host[168] arrrate 0.4
par Aloha.host[168] packet_size 1B
attr unit B
par Aloha.host[168] x 43.1899m
attr unit m
par Aloha.host[168] y 72.6153m
attr unit m
par Aloha.host[168] txrate 1000Bps
attr unit Bps
par Aloha.host[169] typename "\"Host\""
par Aloha.host[169] arrrate 0.4
par Aloha.host[169] packet_size 1B
attr unit B
par Aloha.host[169] x 166.352m
attr unit m
par Aloha.host[169] y 160.011m
attr unit m
par Aloha.host[169] txrate 1000Bps
attr unit Bps
par Aloha.host[170] typename "\"Host\""
par Aloha.host[170] arrrate 0.4
par Aloha.host[170] packet_size 1B
attr unit B
par Aloha.host[170] x 169.661m
attr unit m
par Aloha.host[170] y 143.911m
attr unit m
par Aloha.host[170] txrate 1000Bps
attr unit Bps
par Aloha.host[171] typename "\"Host\""
par Aloha.host[171] arrrate 0.4
par Aloha.host[171] packet_size 1B
attr unit B
par Aloha.host[171] x 62.9306m
attr unit m
par Aloha.host[171] y 120.498m
attr unit m
par Aloha.host[171] txrate 1000Bps
attr unit Bps
par Aloha.host[172] typename "\"Host\""
par Aloha.host[172] arrrate 0.4
par Aloha.host[172] packet_size 1B
attr unit B
par Aloha.host[172] x 55.8589m
attr unit m
par Aloha.host[172] y 46.2922m
attr unit m
par Aloha.host[172] txrate 1000Bps
attr unit Bps
par Aloha.host[173] typename "\"Host\""
par Aloha.host[173] arrrate 0.4
par Aloha.host[173] packet_size 1B
attr unit B
par Aloha.host[173] x 86.163m
attr unit m
par Aloha.host[173] y 88.7175m
attr unit m
par Aloha.host[173] txrate 1000Bps
attr unit Bps
par Aloha.host[174] typename "\"Host\""
par Aloha.host[174] arrrate 0.4
par Aloha.host[174] packet_size 1B
attr unit B
par Aloha.host[174] x 107.889m
attr unit m
par Aloha.host[174] y 128.615m
attr unit m
par Aloha.host[174] txrate 1000Bps
attr unit Bps
par Aloha.host[175] typename "\"Host\""
par Aloha.host[175] arrrate 0.4
par Aloha.host[175] packet_size 1B
attr unit B
par Aloha.host[175] x 19.1134m
attr unit m
par Aloha.host[175] y 156.477m
attr unit m
par Aloha.host[175] txrate 1000Bps
attr unit Bps
par Aloha.host[176] typename "\"Host\""
par Aloha.host[176] arrrate 0.4
par Aloha.host[176] packet_size 1B
attr unit B
par Aloha.host[176] x 167.382m
attr unit m
par Aloha.host[176] y 158.752m
attr unit m
par Aloha.host[176] txrate 1000Bps
attr unit Bps
par Aloha.host[177] typename "\"Host\""
par Aloha.host[177] arrrate 0.4
par Aloha.host[177] packet_size 1B
attr unit B
par Aloha.host[177] x 106.947m
attr unit m
par Aloha.host[177] y 76.1858m
attr unit m
par Aloha.host[177] txrate 1000Bps
attr unit Bps
par Aloha.host[178] typename "\"Host\""
par Aloha.host[178] arrrate 0.4
par Aloha.host[178] packet_size 1B
attr unit B
par Aloha.host[178] x 154.994m
attr unit m
par Aloha.host[178] y 81.5834m
attr unit m
par Aloha.host[178] txrate 1000Bps
attr unit Bps
par Aloha.host[179] typename "\"Host\""
par Aloha.host[179] arrrate 0.4
par Aloha.host[179] packet_size 1B
attr unit B
par Aloha.host[179] x 46.1673m
attr unit m
par Aloha.host[179] y 21.1318m
attr unit m
par Aloha.host[179] txrate 1000Bps
attr unit Bps
par Aloha.host[180] typename "\"Host\""
par Aloha.host[180] arrrate 0.4
par Aloha.host[180] packet_size 1B
attr unit B
par Aloha.host[180] x 193.059m
attr unit m
par Aloha.host[180] y 87.8005m
attr unit m
par Aloha.host[180] txrate 1000Bps
attr unit Bps
par Aloha.host[181] typename "\"Host\""
par Aloha.host[181] arrrate 0.4
par Aloha.host[181] packet_size 1B
attr unit B
par Aloha.host[181] x 150.205m
attr unit m
par Aloha.host[181] y 170.846m
attr unit m
par Aloha.host[181] txrate 1000Bps
attr unit Bps
par Aloha.host[182] typename "\"Host\""
par Aloha.host[182] arrrate 0.4
par Aloha.host[182] packet_size 1B
attr unit B
par Aloha.host[182] x 68.6188m
attr unit m
par Aloha.host[182] y 193.886m
attr unit m
par Aloha.host[182] txrate 1000Bps
attr unit Bps
par Aloha.host[183] typename "\"Host\""
par Aloha.host[183] arrrate 0.4
par Aloha.host[183] packet_size 1B
attr unit B
par Aloha.host[183] x 189.706m
attr unit m
par Aloha.host[183] y 144.03m
attr unit m
par Aloha.host[183] txrate 1000Bps
attr unit Bps
par Aloha.host[184] typename "\"Host\""
par Aloha.host[184] arrrate 0.4
par Aloha.host[184] packet_size 1B
attr unit B
par Aloha.host[184] x 140.102m
attr unit m
par Aloha.host[184] y 82.0183m
attr unit m
par Aloha.host[184] txrate 1000Bps
attr unit Bps
par Aloha.host[185] typename "\"Host\""
par Aloha.host[185] arrrate 0.4
par Aloha.host[185] packet_size 1B
attr unit B
par Aloha.host[185] x 168.112m
attr unit m
par Aloha.host[185] y 27.8353m
attr unit m
par Aloha.host[185] txrate 1000Bps
attr unit Bps
par Aloha.host[186] typename "\"Host\""
par Aloha.host[186] arrrate 0.4
par Aloha.host[186] packet_size 1B
attr unit B
par Aloha.host[186] x 9.09946m
attr unit m
par Aloha.host[186] y 4.41916m
attr unit m
par Aloha.host[186] txrate 1000Bps
attr unit Bps
par Aloha.host[187] typename "\"Host\""
par Aloha.host[187] arrrate 0.4
par Aloha.host[187] packet_size 1B
attr unit B
par Aloha.host[187] x 11.1283m
attr unit m
par Aloha.host[187] y 44.4753m
attr unit m
par Aloha.host[187] txrate 1000Bps
attr unit Bps
par Aloha.host[188] typename "\"Host\""
par Aloha.host[188] arrrate 0.4
par Aloha.host[188] packet_size 1B
attr unit B
par Aloha.host[188] x 148.547m
attr unit m
par Aloha.host[188] y 71.3491m
attr unit m
par Aloha.host[188] txrate 1000Bps
attr unit Bps
par Aloha.host[189] typename "\"Host\""
par Aloha.host[189] arrrate 0.4
par Aloha.host[189] packet_size 1B
attr unit B
par Aloha.host[189] x 60.9373m
attr unit m
par Aloha.host[189] y 156.552m
attr unit m
par Aloha.host[189] txrate 1000Bps
attr unit Bps
par Aloha.host[190] typename "\"Host\""
par Aloha.host[190] arrrate 0.4
par Aloha.host[190] packet_size 1B
attr unit B
par Aloha.host[190] x 103.357m
attr unit m
par Aloha.host[190] y 89.8802m
attr unit m
par Aloha.host[190] txrate 1000Bps
attr unit Bps
par Aloha.host[191] typename "\"Host\""
par Aloha.host[191] arrrate 0.4
par Aloha.host[191] packet_size 1B
attr unit B
par Aloha.host[191] x 31.2525m
attr unit m
par Aloha.host[191] y 95.3864m
attr unit m
par Aloha.host[191] txrate 1000Bps
attr unit Bps
par Aloha.host[192] typename "\"Host\""
par Aloha.host[192] arrrate 0.4
par Aloha.host[192] packet_size 1B
attr unit B
par Aloha.host[192] x 195.59m
attr unit m
par Aloha.host[192] y 103.257m
attr unit m
par Aloha.host[192] txrate 1000Bps
attr unit Bps
par Aloha.host[193] typename "\"Host\""
par Aloha.host[193] arrrate 0.4
par Aloha.host[193] packet_size 1B
attr unit B
par Aloha.host[193] x 100.55m
attr unit m
par Aloha.host[193] y 73.6961m
attr unit m
par Aloha.host[193] txrate 1000Bps
attr unit Bps
par Aloha.host[194] typename "\"Host\""
par Aloha.host[194] arrrate 0.4
par Aloha.host[194] packet_size 1B
attr unit B
par Aloha.host[194] x 165.8m
attr unit m
par Aloha.host[194] y 52.4855m
attr unit m
par Aloha.host[194] txrate 1000Bps
attr unit Bps
par Aloha.host[195] typename "\"Host\""
par Aloha.host[195] arrrate 0.4
par Aloha.host[195] packet_size 1B
attr unit B
par Aloha.host[195] x 14.8076m
attr unit m
par Aloha.host[195] y 160.566m
attr unit m
par Aloha.host[195] txrate 1000Bps
attr unit Bps
par Aloha.host[196] typename "\"Host\""
par Aloha.host[196] arrrate 0.4
par Aloha.host[196] packet_size 1B
attr unit B
par Aloha.host[196] x 95.7831m
attr unit m
par Aloha.host[196] y 180.154m
attr unit m
par Aloha.host[196] txrate 1000Bps
attr unit Bps
par Aloha.host[197] typename "\"Host\""
par Aloha.host[197] arrrate 0.4
par Aloha.host[197] packet_size 1B
attr unit B
par Aloha.host[197] x 12.4559m
attr unit m
par Aloha.host[197] y 72.2168m
attr unit m
par Aloha.host[197] txrate 1000Bps
attr unit Bps
par Aloha.host[198] typename "\"Host\""
par Aloha.host[198] arrrate 0.4
par Aloha.host[198] packet_size 1B
attr unit B
par Aloha.host[198] x 176.848m
attr unit m
par Aloha.host[198] y 176.813m
attr unit m
par Aloha.host[198] txrate 1000Bps
attr unit Bps
par Aloha.host[199] typename "\"Host\""
par Aloha.host[199] arrrate 0.4
par Aloha.host[199] packet_size 1B
attr unit B
par Aloha.host[199] x 89.162m
attr unit m
par Aloha.host[199] y 61.2255m
attr unit m
par Aloha.host[199] txrate 1000Bps
attr unit Bps
par Aloha.host[200] typename "\"Host\""
par Aloha.host[200] arrrate 0.4
par Aloha.host[200] packet_size 1B
attr unit B
par Aloha.host[200] x 13.71m
attr unit m
par Aloha.host[200] y 56.7379m
attr unit m
par Aloha.host[200] txrate 1000Bps
attr unit Bps
par Aloha.host[201] typename "\"Host\""
par Aloha.host[201] arrrate 0.4
par Aloha.host[201] packet_size 1B
attr unit B
par Aloha.host[201] x 15.2993m
attr unit m
par Aloha.host[201] y 42.5789m
attr unit m
par Aloha.host[201] txrate 1000Bps
attr unit Bps
par Aloha.host[202] typename "\"Host\""
par Aloha.host[202] arrrate 0.4
par Aloha.host[202] packet_size 1B
attr unit B
par Aloha.host[202] x 107.759m
attr unit m
par Aloha.host[202] y 84.0533m
attr unit m
par Aloha.host[202] txrate 1000Bps
attr unit Bps
par Aloha.host[203] typename "\"Host\""
par Aloha.host[203] arrrate 0.4
par Aloha.host[203] packet_size 1B
attr unit B
par Aloha.host[203] x 15.1133m
attr unit m
par Aloha.host[203] y 25.1642m
attr unit m
par Aloha.host[203] txrate 1000Bps
attr unit Bps
par Aloha.host[204] typename "\"Host\""
par Aloha.host[204] arrrate 0.4
par Aloha.host[204] packet_size 1B
attr unit B
par Aloha.host[204] x 36.7545m
attr unit m
par Aloha.host[204] y 198.585m
attr unit m
par Aloha.host[204] txrate 1000Bps
attr unit Bps
par Aloha.host[205] typename "\"Host\""
par Aloha.host[205] arrrate 0.4
par Aloha.host[205] packet_size 1B
attr unit B
par Aloha.host[205] x 87.2714m
attr unit m
par Aloha.host[205] y 86.7069m
attr unit m
par Aloha.host[205] txrate 1000Bps
attr unit Bps
par Aloha.host[206] typename "\"Host\""
par Aloha.host[206] arrrate 0.4
par Aloha.host[206] packet_size 1B
attr unit B
par Aloha.host[206] x 99.5566m
attr unit m
par Aloha.host[206] y 123.341m
attr unit m
par Aloha.host[206] txrate 1000Bps
attr unit Bps
par Aloha.host[207] typename "\"Host\""
par Aloha.host[207] arrrate 0.4
par Aloha.host[207] packet_size 1B
attr unit B
par Aloha.host[207] x 116.662m
attr unit m
par Aloha.host[207] y 195.815m
attr unit m
par Aloha.host[207] txrate 1000Bps
attr unit Bps
par Aloha.host[208] typename "\"Host\""
par Aloha.host[208] arrrate 0.4
par Aloha.host[208] packet_size 1B
attr unit B
par Aloha.host[208] x 124.103m
attr unit m
par Aloha.host[208] y 58.6709m
attr unit m
par Aloha.host[208] txrate 1000Bps
attr unit Bps
par Aloha.host[209] typename "\"Host\""
par Aloha.host[209] arrrate 0.4
par Aloha.host[209] packet_size 1B
attr unit B
par Aloha.host[209] x 74.5623m
attr unit m
par Aloha.host[209] y 90.8624m
attr unit m
par Aloha.host[209] txrate 1000Bps
attr unit Bps
par Aloha.host[210] typename "\"Host\""
par Aloha.host[210] arrrate 0.4
par Aloha.host[210] packet_size 1B
attr unit B
par Aloha.host[210] x 123.747m
attr unit m
par Aloha.host[210] y 79.6274m
attr unit m
par Aloha.host[210] txrate 1000Bps
attr unit Bps
par Aloha.host[211] typename "\"Host\""
par Aloha.host[211] arrrate 0.4
par Aloha.host[211] packet_size 1B
attr unit B
par Aloha.host[211] x 31.4489m
attr unit m
par Aloha.host[211] y 157.718m
attr unit m
par Aloha.host[211] txrate 1000Bps
attr unit Bps
par Aloha.host[212] typename "\"Host\""
par Aloha.host[212] arrrate 0.4
par Aloha.host[212] packet_size 1B
attr unit B
par Aloha.host[212] x 55.1017m
attr unit m
par Aloha.host[212] y 123.491m
attr unit m
par Aloha.host[212] txrate 1000Bps
attr unit Bps
par Aloha.host[213] typename "\"Host\""
par Aloha.host[213] arrrate 0.4
par Aloha.host[213] packet_size 1B
attr unit B
par Aloha.host[213] x 159.744m
attr unit m
par Aloha.host[213] y 118.305m
attr unit m
par Aloha.host[213] txrate 1000Bps
attr unit Bps
par Aloha.host[214] typename "\"Host\""
par Aloha.host[214] arrrate 0.4
par Aloha.host[214] packet_size 1B
attr unit B
par Aloha.host[214] x 30.6179m
attr unit m
par Aloha.host[214] y 24.9244m
attr unit m
par Aloha.host[214] txrate 1000Bps
attr unit Bps
par Aloha.host[215] typename "\"Host\""
par Aloha.host[215] arrrate 0.4
par Aloha.host[215] packet_size 1B
attr unit B
par Aloha.host[215] x 44.6646m
attr unit m
par Aloha.host[215] y 6.18584m
attr unit m
par Aloha.host[215] txrate 1000Bps
attr unit Bps
par Aloha.host[216] typename "\"Host\""
par Aloha.host[216] arrrate 0.4
par Aloha.host[216] packet_size 1B
attr unit B
par Aloha.host[216] x 48.5956m
attr unit m
par Aloha.host[216] y 46.4197m
attr unit m
par Aloha.host[216] txrate 1000Bps
attr unit Bps
par Aloha.host[217] typename "\"Host\""
par Aloha.host[217] arrrate 0.4
par Aloha.host[217] packet_size 1B
attr unit B
par Aloha.host[217] x 95.9015m
attr unit m
par Aloha.host[217] y 2.5511m
attr unit m
par Aloha.host[217] txrate 1000Bps
attr unit Bps
par Aloha.host[218] typename "\"Host\""
par Aloha.host[218] arrrate 0.4
par Aloha.host[218] packet_size 1B
attr unit B
par Aloha.host[218] x 0.149104m
attr unit m
par Aloha.host[218] y 54.9275m
attr unit m
par Aloha.host[218] txrate 1000Bps
attr unit Bps
par Aloha.host[219] typename "\"Host\""
par Aloha.host[219] arrrate 0.4
par Aloha.host[219] packet_size 1B
attr unit B
par Aloha.host[219] x 6.06227m
attr unit m
par Aloha.host[219] y 188.383m
attr unit m
par Aloha.host[219] txrate 1000Bps
attr unit Bps
par Aloha.host[220] typename "\"Host\""
par Aloha.host[220] arrrate 0.4
par Aloha.host[220] packet_size 1B
attr unit B
par Aloha.host[220] x 92.3096m
attr unit m
par Aloha.host[220] y 55.3536m
attr unit m
par Aloha.host[220] txrate 1000Bps
attr unit Bps
par Aloha.host[221] typename "\"Host\""
par Aloha.host[221] arrrate 0.4
par Aloha.host[221] packet_size 1B
attr unit B
par Aloha.host[221] x 32.5041m
attr unit m
par Aloha.host[221] y 15.1576m
attr unit m
par Aloha.host[221] txrate 1000Bps
attr unit Bps
par Aloha.host[222] typename "\"Host\""
par Aloha.host[222] arrrate 0.4
par Aloha.host[222] packet_size 1B
attr unit B
par Aloha.host[222] x 135.9m
attr unit m
par Aloha.host[222] y 54.8704m
attr unit m
par Aloha.host[222] txrate 1000Bps
attr unit Bps
par Aloha.host[223] typename "\"Host\""
par Aloha.host[223] arrrate 0.4
par Aloha.host[223] packet_size 1B
attr unit B
par Aloha.host[223] x 159.041m
attr unit m
par Aloha.host[223] y 197.205m
attr unit m
par Aloha.host[223] txrate 1000Bps
attr unit Bps
par Aloha.host[224] typename "\"Host\""
par Aloha.host[224] arrrate 0.4
par Aloha.host[224] packet_size 1B
attr unit B
par Aloha.host[224] x 115.633m
attr unit m
par Aloha.host[224] y 84.5249m
attr unit m
par Aloha.host[224] txrate 1000Bps
attr unit Bps
par Aloha.host[225] typename "\"Host\""
par Aloha.host[225] arrrate 0.4
par Aloha.host[225] packet_size 1B
attr unit B
par Aloha.host[225] x 138.953m
attr unit m
par Aloha.host[225] y 146.032m
attr unit m
par Aloha.host[225] txrate 1000Bps
attr unit Bps
par Aloha.host[226] typename "\"Host\""
par Aloha.host[226] arrrate 0.4
par Aloha.host[226] packet_size 1B
attr unit B
par Aloha.host[226] x 78.1916m
attr unit m
par Aloha.host[226] y 123.038m
attr unit m
par Aloha.host[226] txrate 1000Bps
attr unit Bps
par Aloha.host[227] typename "\"Host\""
par Aloha.host[227] arrrate 0.4
par Aloha.host[227] packet_size 1B
attr unit B
par Aloha.host[227] x 9.25924m
attr unit m
par Aloha.host[227] y 36.1481m
attr unit m
par Aloha.host[227] txrate 1000Bps
attr unit Bps
par Aloha.host[228] typename "\"Host\""
par Aloha.host[228] arrrate 0.4
par Aloha.host[228] packet_size 1B
attr unit B
par Aloha.host[228] x 87.8843m
attr unit m
par Aloha.host[228] y 148.766m
attr unit m
par Aloha.host[228] txrate 1000Bps
attr unit Bps
par Aloha.host[229] typename "\"Host\""
par Aloha.host[229] arrrate 0.4
par Aloha.host[229] packet_size 1B
attr unit B
par Aloha.host[229] x 74.3961m
attr unit m
par Aloha.host[229] y 73.0963m
attr unit m
par Aloha.host[229] txrate 1000Bps
attr unit Bps
par Aloha.host[230] typename "\"Host\""
par Aloha.host[230] arrrate 0.4
par Aloha.host[230] packet_size 1B
attr unit B
par Aloha.host[230] x 119.401m
attr unit m
par Aloha.host[230] y 155.352m
attr unit m
par Aloha.host[230] txrate 1000Bps
attr unit Bps
par Aloha.host[231] typename "\"Host\""
par Aloha.host[231] arrrate 0.4
par Aloha.host[231] packet_size 1B
attr unit B
par Aloha.host[231] x 26.8436m
attr unit m
par Aloha.host[231] y 158.665m
attr unit m
par Aloha.host[231] txrate 1000Bps
attr unit Bps
par Aloha.host[232] typename "\"Host\""
par Aloha.host[232] arrrate 0.4
par Aloha.host[232] packet_size 1B
attr unit B
par Aloha.host[232] x 45.5426m
attr unit m
par Aloha.host[232] y 126.861m
attr unit m
par Aloha.host[232] txrate 1000Bps
attr unit Bps
par Aloha.host[233] typename "\"Host\""
par Aloha.host[233] arrrate 0.4
par Aloha.host[233] packet_size 1B
attr unit B
par Aloha.host[233] x 162.956m
attr unit m
par Aloha.host[233] y 152.128m
attr unit m
par Aloha.host[233] txrate 1000Bps
attr unit Bps
par Aloha.host[234] typename "\"Host\""
par Aloha.host[234] arrrate 0.4
par Aloha.host[234] packet_size 1B
attr unit B
par Aloha.host[234] x 52.8651m
attr unit m
par Aloha.host[234] y 127.611m
attr unit m
par Aloha.host[234] txrate 1000Bps
attr unit Bps
par Aloha.host[235] typename "\"Host\""
par Aloha.host[235] arrrate 0.4
par Aloha.host[235] packet_size 1B
attr unit B
par Aloha.host[235] x 82.064m
attr unit m
par Aloha.host[235] y 131.027m
attr unit m
par Aloha.host[235] txrate 1000Bps
attr unit Bps
par Aloha.host[236] typename "\"Host\""
par Aloha.host[236] arrrate 0.4
par Aloha.host[236] packet_size 1B
attr unit B
par Aloha.host[236] x 187.194m
attr unit m
par Aloha.host[236] y 0.0957631m
attr unit m
par Aloha.host[236] txrate 1000Bps
attr unit Bps
par Aloha.host[237] typename "\"Host\""
par Aloha.host[237] arrrate 0.4
par Aloha.host[237] packet_size 1B
attr unit B
par Aloha.host[237] x 55.1105m
attr unit m
par Aloha.host[237] y 106.293m
attr unit m
par Aloha.host[237] txrate 1000Bps
attr unit Bps
par Aloha.host[238] typename "\"Host\""
par Aloha.host[238] arrrate 0.4
par Aloha.host[238] packet_size 1B
attr unit B
par Aloha.host[238] x 29.058m
attr unit m
par Aloha.host[238] y 35.7078m
attr unit m
par Aloha.host[238] txrate 1000Bps
attr unit Bps
par Aloha.host[239] typename "\"Host\""
par Aloha.host[239] arrrate 0.4
par Aloha.host[239] packet_size 1B
attr unit B
par Aloha.host[239] x 140.404m
attr unit m
par Aloha.host[239] y 153.827m
attr unit m
par Aloha.host[239] txrate 1000Bps
attr unit Bps
par Aloha.host[240] typename "\"Host\""
par Aloha.host[240] arrrate 0.4
par Aloha.host[240] packet_size 1B
attr unit B
par Aloha.host[240] x 113.413m
attr unit m
par Aloha.host[240] y 5.00506m
attr unit m
par Aloha.host[240] txrate 1000Bps
attr unit Bps
par Aloha.host[241] typename "\"Host\""
par Aloha.host[241] arrrate 0.4
par Aloha.host[241] packet_size 1B
attr unit B
par Aloha.host[241] x 122.319m
attr unit m
par Aloha.host[241] y 13.174m
attr unit m
par Aloha.host[241] txrate 1000Bps
attr unit Bps
par Aloha.host[242] typename "\"Host\""
par Aloha.host[242] arrrate 0.4
par Aloha.host[242] packet_size 1B
attr unit B
par Aloha.host[242] x 8.40617m
attr unit m
par Aloha.host[242] y 65.2528m
attr unit m
par Aloha.host[242] txrate 1000Bps
attr unit Bps
par Aloha.host[243] typename "\"Host\""
par Aloha.host[243] arrrate 0.4
par Aloha.host[243] packet_size 1B
attr unit B
par Aloha.host[243] x 83.4534m
attr unit m
par Aloha.host[243] y 116.786m
attr unit m
par Aloha.host[243] txrate 1000Bps
attr unit Bps
par Aloha.host[244] typename "\"Host\""
par Aloha.host[244] arrrate 0.4
par Aloha.host[244] packet_size 1B
attr unit B
par Aloha.host[244] x 0.853288m
attr unit m
par Aloha.host[244] y 20.1155m
attr unit m
par Aloha.host[244] txrate 1000Bps
attr unit Bps
par Aloha.host[245] typename "\"Host\""
par Aloha.host[245] arrrate 0.4
par Aloha.host[245] packet_size 1B
attr unit B
par Aloha.host[245] x 49.3071m
attr unit m
par Aloha.host[245] y 100.385m
attr unit m
par Aloha.host[245] txrate 1000Bps
attr unit Bps
par Aloha.host[246] typename "\"Host\""
par Aloha.host[246] arrrate 0.4
par Aloha.host[246] packet_size 1B
attr unit B
par Aloha.host[246] x 141.211m
attr unit m
par Aloha.host[246] y 160.199m
attr unit m
par Aloha.host[246] txrate 1000Bps
attr unit Bps
par Aloha.host[247] typename "\"Host\""
par Aloha.host[247] arrrate 0.4
par Aloha.host[247] packet_size 1B
attr unit B
par Aloha.host[247] x 12.3081m
attr unit m
par Aloha.host[247] y 14.074m
attr unit m
par Aloha.host[247] txrate 1000Bps
attr unit Bps
par Aloha.host[248] typename "\"Host\""
par Aloha.host[248] arrrate 0.4
par Aloha.host[248] packet_size 1B
attr unit B
par Aloha.host[248] x 58.9387m
attr unit m
par Aloha.host[248] y 167.781m
attr unit m
par Aloha.host[248] txrate 1000Bps
attr unit Bps
par Aloha.host[249] typename "\"Host\""
par Aloha.host[249] arrrate 0.4
par Aloha.host[249] packet_size 1B
attr unit B
par Aloha.host[249] x 197.623m
attr unit m
par Aloha.host[249] y 138.055m
attr unit m
par Aloha.host[249] txrate 1000Bps
attr unit Bps
par Aloha.host[250] typename "\"Host\""
par Aloha.host[250] arrrate 0.4
par Aloha.host[250] packet_size 1B
attr unit B
par Aloha.host[250] x 194.244m
attr unit m
par Aloha.host[250] y 24.8315m
attr unit m
par Aloha.host[250] txrate 1000Bps
attr unit Bps
par Aloha.host[251] typename "\"Host\""
par Aloha.host[251] arrrate 0.4
par Aloha.host[251] packet_size 1B
attr unit B
par Aloha.host[251] x 96.3693m
attr unit m
par Aloha.host[251] y 106.719m
attr unit m
par Aloha.host[251] txrate 1000Bps
attr unit Bps
par Aloha.host[252] typename "\"Host\""
par Aloha.host[252] arrrate 0.4
par Aloha.host[252] packet_size 1B
attr unit B
par Aloha.host[252] x 147.139m
attr unit m
par Aloha.host[252] y 168.889m
attr unit m
par Aloha.host[252] txrate 1000Bps
attr unit Bps
par Aloha.host[253] typename "\"Host\""
par Aloha.host[253] arrrate 0.4
par Aloha.host[253] packet_size 1B
attr unit B
par Aloha.host[253] x 126.531m
attr unit m
par Aloha.host[253] y 123.469m
attr unit m
par Aloha.host[253] txrate 1000Bps
attr unit Bps
par Aloha.host[254] typename "\"Host\""
par Aloha.host[254] arrrate 0.4
par Aloha.host[254] packet_size 1B
attr unit B
par Aloha.host[254] x 93.1386m
attr unit m
par Aloha.host[254] y 198.904m
attr unit m
par Aloha.host[254] txrate 1000Bps
attr unit Bps
par Aloha.host[255] typename "\"Host\""
par Aloha.host[255] arrrate 0.4
par Aloha.host[255] packet_size 1B
attr unit B
par Aloha.host[255] x 171.413m
attr unit m
par Aloha.host[255] y 66.8366m
attr unit m
par Aloha.host[255] txrate 1000Bps
attr unit Bps
par Aloha.host[256] typename "\"Host\""
par Aloha.host[256] arrrate 0.4
par Aloha.host[256] packet_size 1B
attr unit B
par Aloha.host[256] x 34.5036m
attr unit m
par Aloha.host[256] y 168.855m
attr unit m
par Aloha.host[256] txrate 1000Bps
attr unit Bps
par Aloha.host[257] typename "\"Host\""
par Aloha.host[257] arrrate 0.4
par Aloha.host[257] packet_size 1B
attr unit B
par Aloha.host[257] x 165.686m
attr unit m
par Aloha.host[257] y 81.2554m
attr unit m
par Aloha.host[257] txrate 1000Bps
attr unit Bps
par Aloha.host[258] typename "\"Host\""
par Aloha.host[258] arrrate 0.4
par Aloha.host[258] packet_size 1B
attr unit B
par Aloha.host[258] x 8.4139m
attr unit m
par Aloha.host[258] y 171.324m
attr unit m
par Aloha.host[258] txrate 1000Bps
attr unit Bps
par Aloha.host[259] typename "\"Host\""
par Aloha.host[259] arrrate 0.4
par Aloha.host[259] packet_size 1B
attr unit B
par Aloha.host[259] x 173.391m
attr unit m
par Aloha.host[259] y 159.265m
attr unit m
par Aloha.host[259] txrate 1000Bps
attr unit Bps
par Aloha.host[260] typename "\"Host\""
par Aloha.host[260] arrrate 0.4
par Aloha.host[260] packet_size 1B
attr unit B
par Aloha.host[260] x 135.199m
attr unit m
par Aloha.host[260] y 21.1483m
attr unit m
par Aloha.host[260] txrate 1000Bps
attr unit Bps
par Aloha.host[261] typename "\"Host\""
par Aloha.host[261] arrrate 0.4
par Aloha.host[261] packet_size 1B
attr unit B
par Aloha.host[261] x 89.1828m
attr unit m
par Aloha.host[261] y 143.076m
attr unit m
par Aloha.host[261] txrate 1000Bps
attr unit Bps
par Aloha.host[262] typename "\"Host\""
par Aloha.host[262] arrrate 0.4
par Aloha.host[262] packet_size 1B
attr unit B
par Aloha.host[262] x 134.314m
attr unit m
par Aloha.host[262] y 165.974m
attr unit m
par Aloha.host[262] txrate 1000Bps
attr unit Bps
par Aloha.host[263] typename "\"Host\""
par Aloha.host[263] arrrate 0.4
par Aloha.host[263] packet_size 1B
attr unit B
par Aloha.host[263] x 92.0737m
attr unit m
par Aloha.host[263] y 126.955m
attr unit m
par Aloha.host[263] txrate 1000Bps
attr unit Bps
par Aloha.host[264] typename "\"Host\""
par Aloha.host[264] arrrate 0.4
par Aloha.host[264] packet_size 1B
attr unit B
par Aloha.host[264] x 156.001m
attr unit m
par Aloha.host[264] y 68.0665m
attr unit m
par Aloha.host[264] txrate 1000Bps
attr unit Bps
par Aloha.host[265] typename "\"Host\""
par Aloha.host[265] arrrate 0.4
par Aloha.host[265] packet_size 1B
attr unit B
par Aloha.host[265] x 22.6888m
attr unit m
par Aloha.host[265] y 38.2567m
attr unit m
par Aloha.host[265] txrate 1000Bps
attr unit Bps
par Aloha.host[266] typename "\"Host\""
par Aloha.host[266] arrrate 0.4
par Aloha.host[266] packet_size 1B
attr unit B
par Aloha.host[266] x 101.631m
attr unit m
par Aloha.host[266] y 113.276m
attr unit m
par Aloha.host[266] txrate 1000Bps
attr unit Bps
par Aloha.host[267] typename "\"Host\""
par Aloha.host[267] arrrate 0.4
par Aloha.host[267] packet_size 1B
attr unit B
par Aloha.host[267] x 174.298m
attr unit m
par Aloha.host[267] y 5.40637m
attr unit m
par Aloha.host[267] txrate 1000Bps
attr unit Bps
par Aloha.host[268] typename "\"Host\""
par Aloha.host[268] arrrate 0.4
par Aloha.host[268] packet_size 1B
attr unit B
par Aloha.host[268] x 185.506m
attr unit m
par Aloha.host[268] y 10.595m
attr unit m
par Aloha.host[268] txrate 1000Bps
attr unit Bps
par Aloha.host[269] typename "\"Host\""
par Aloha.host[269] arrrate 0.4
par Aloha.host[269] packet_size 1B
attr unit B
par Aloha.host[269] x 44.0673m
attr unit m
par Aloha.host[269] y 163.254m
attr unit m
par Aloha.host[269] txrate 1000Bps
attr unit Bps
par Aloha.host[270] typename "\"Host\""
par Aloha.host[270] arrrate 0.4
par Aloha.host[270] packet_size 1B
attr unit B
par Aloha.host[270] x 50.3861m
attr unit m
par Aloha.host[270] y 164.647m
attr unit m
par Aloha.host[270] txrate 1000Bps
attr unit Bps
par Aloha.host[271] typename "\"Host\""
par Aloha.host[271] arrrate 0.4
par Aloha.host[271] packet_size 1B
attr unit B
par Aloha.host[271] x 180.802m
attr unit m
par Aloha.host[271] y 4.60459m
attr unit m
par Aloha.host[271] txrate 1000Bps
attr unit Bps
par Aloha.host[272] typename "\"Host\""
par Aloha.host[272] arrrate 0.4
par Aloha.host[272] packet_size 1B
attr unit B
par Aloha.host[272] x 69.1035m
attr unit m
par Aloha.host[272] y 37.3902m
attr unit m
par Aloha.host[272] txrate 1000Bps
attr unit Bps
par Aloha.host[273] typename "\"Host\""
par Aloha.host[273] arrrate 0.4
par Aloha.host[273] packet_size 1B
attr unit B
par Aloha.host[273] x 11.3745m
attr unit m
par Aloha.host[273] y 134.866m
attr unit m
par Aloha.host[273] txrate 1000Bps
attr unit Bps
par Aloha.host[274] typename "\"Host\""
par Aloha.host[274] arrrate 0.4
par Aloha.host[274] packet_size 1B
attr unit B
par Aloha.host[274] x 142.977m
attr unit m
par Aloha.host[274] y 181.672m
attr unit m
par Aloha.host[274] txrate 1000Bps
attr unit Bps
par Aloha.host[275] typename "\"Host\""
par Aloha.host[275] arrrate 0.4
par Aloha.host[275] packet_size 1B
attr unit B
par Aloha.host[275] x 82.8838m
attr unit m
par Aloha.host[275] y 143.183m
attr unit m
par Aloha.host[275] txrate 1000Bps
attr unit Bps
par Aloha.host[276] typename "\"Host\""
par Aloha.host[276] arrrate 0.4
par Aloha.host[276] packet_size 1B
attr unit B
par Aloha.host[276] x 147.065m
attr unit m
par Aloha.host[276] y 157.809m
attr unit m
par Aloha.host[276] txrate 1000Bps
attr unit Bps
par Aloha.host[277] typename "\"Host\""
par Aloha.host[277] arrrate 0.4
par Aloha.host[277] packet_size 1B
attr unit B
par Aloha.host[277] x 95.4183m
attr unit m
par Aloha.host[277] y 17.7156m
attr unit m
par Aloha.host[277] txrate 1000Bps
attr unit Bps
par Aloha.host[278] typename "\"Host\""
par Aloha.host[278] arrrate 0.4
par Aloha.host[278] packet_size 1B
attr unit B
par Aloha.host[278] x 100.113m
attr unit m
par Aloha.host[278] y 86.3036m
attr unit m
par Aloha.host[278] txrate 1000Bps
attr unit Bps
par Aloha.host[279] typename "\"Host\""
par Aloha.host[279] arrrate 0.4
par Aloha.host[279] packet_size 1B
attr unit B
par Aloha.host[279] x 83.5124m
attr unit m
par Aloha.host[279] y 182.876m
attr unit m
par Aloha.host[279] txrate 1000Bps
attr unit Bps
par Aloha.host[280] typename "\"Host\""
par Aloha.host[280] arrrate 0.4
par Aloha.host[280] packet_size 1B
attr unit B
par Aloha.host[280] x 58.097m
attr unit m
par Aloha.host[280] y 152.831m
attr unit m
par Aloha.host[280] txrate 1000Bps
attr unit Bps
par Aloha.host[281] typename "\"Host\""
par Aloha.host[281] arrrate 0.4
par Aloha.host[281] packet_size 1B
attr unit B
par Aloha.host[281] x 180.142m
attr unit m
par Aloha.host[281] y 41.1279m
attr unit m
par Aloha.host[281] txrate 1000Bps
attr unit Bps
par Aloha.host[282] typename "\"Host\""
par Aloha.host[282] arrrate 0.4
par Aloha.host[282] packet_size 1B
attr unit B
par Aloha.host[282] x 133.758m
attr unit m
par Aloha.host[282] y 46.3568m
attr unit m
par Aloha.host[282] txrate 1000Bps
attr unit Bps
par Aloha.host[283] typename "\"Host\""
par Aloha.host[283] arrrate 0.4
par Aloha.host[283] packet_size 1B
attr unit B
par Aloha.host[283] x 157.766m
attr unit m
par Aloha.host[283] y 179.282m
attr unit m
par Aloha.host[283] txrate 1000Bps
attr unit Bps
par Aloha.host[284] typename "\"Host\""
par Aloha.host[284] arrrate 0.4
par Aloha.host[284] packet_size 1B
attr unit B
par Aloha.host[284] x 179.148m
attr unit m
par Aloha.host[284] y 148.621m
attr unit m
par Aloha.host[284] txrate 1000Bps
attr unit Bps
par Aloha.host[285] typename "\"Host\""
par Aloha.host[285] arrrate 0.4
par Aloha.host[285] packet_size 1B
attr unit B
par Aloha.host[285] x 50.0378m
attr unit m
par Aloha.host[285] y 83.6446m
attr unit m
par Aloha.host[285] txrate 1000Bps
attr unit Bps
par Aloha.host[286] typename "\"Host\""
par Aloha.host[286] arrrate 0.4
par Aloha.host[286] packet_size 1B
attr unit B
par Aloha.host[286] x 183.964m
attr unit m
par Aloha.host[286] y 194.989m
attr unit m
par Aloha.host[286] txrate 1000Bps
attr unit Bps
par Aloha.host[287] typename "\"Host\""
par Aloha.host[287] arrrate 0.4
par Aloha.host[287] packet_size 1B
attr unit B
par Aloha.host[287] x 172.521m
attr unit m
par Aloha.host[287] y 194.617m
attr unit m
par Aloha.host[287] txrate 1000Bps
attr unit Bps
par Aloha.host[288] typename "\"Host\""
par Aloha.host[288] arrrate 0.4
par Aloha.host[288] packet_size 1B
attr unit B
par Aloha.host[288] x 101.217m
attr unit m
par Aloha.host[288] y 11.34m
attr unit m
par Aloha.host[288] txrate 1000Bps
attr unit Bps
par Aloha.host[289] typename "\"Host\""
par Aloha.host[289] arrrate 0.4
par Aloha.host[289] packet_size 1B
attr unit B
par Aloha.host[289] x 113.58m
attr unit m
par Aloha.host[289] y 107.974m
attr unit m
par Aloha.host[289] txrate 1000Bps
attr unit Bps
par Aloha.host[290] typename "\"Host\""
par Aloha.host[290] arrrate 0.4
par Aloha.host[290] packet_size 1B
attr unit B
par Aloha.host[290] x 22.9864m
attr unit m
par Aloha.host[290] y 172.65m
attr unit m
par Aloha.host[290] txrate 1000Bps
attr unit Bps
par Aloha.host[291] typename "\"Host\""
par Aloha.host[291] arrrate 0.4
par Aloha.host[291] packet_size 1B
attr unit B
par Aloha.host[291] x 152.423m
attr unit m
par Aloha.host[291] y 118.495m
attr unit m
par Aloha.host[291] txrate 1000Bps
attr unit Bps
par Aloha.host[292] typename "\"Host\""
par Aloha.host[292] arrrate 0.4
par Aloha.host[292] packet_size 1B
attr unit B
par Aloha.host[292] x 34.645m
attr unit m
par Aloha.host[292] y 179.413m
attr unit m
par Aloha.host[292] txrate 1000Bps
attr unit Bps
par Aloha.host[293] typename "\"Host\""
par Aloha.host[293] arrrate 0.4
par Aloha.host[293] packet_size 1B
attr unit B
par Aloha.host[293] x 106.767m
attr unit m
par Aloha.host[293] y 109.666m
attr unit m
par Aloha.host[293] txrate 1000Bps
attr unit Bps
par Aloha.host[294] typename "\"Host\""
par Aloha.host[294] arrrate 0.4
par Aloha.host[294] packet_size 1B
attr unit B
par Aloha.host[294] x 25.2875m
attr unit m
par Aloha.host[294] y 168.448m
attr unit m
par Aloha.host[294] txrate 1000Bps
attr unit Bps
par Aloha.host[295] typename "\"Host\""
par Aloha.host[295] arrrate 0.4
par Aloha.host[295] packet_size 1B
attr unit B
par Aloha.host[295] x 14.5834m
attr unit m
par Aloha.host[295] y 126.592m
attr unit m
par Aloha.host[295] txrate 1000Bps
attr unit Bps
par Aloha.host[296] typename "\"Host\""
par Aloha.host[296] arrrate 0.4
par Aloha.host[296] packet_size 1B
attr unit B
par Aloha.host[296] x 121.805m
attr unit m
par Aloha.host[296] y 158.238m
attr unit m
par Aloha.host[296] txrate 1000Bps
attr unit Bps
par Aloha.host[297] typename "\"Host\""
par Aloha.host[297] arrrate 0.4
par Aloha.host[297] packet_size 1B
attr unit B
par Aloha.host[297] x 98.2406m
attr unit m
par Aloha.host[297] y 8.70122m
attr unit m
par Aloha.host[297] txrate 1000Bps
attr unit Bps
par Aloha.host[298] typename "\"Host\""
par Aloha.host[298] arrrate 0.4
par Aloha.host[298] packet_size 1B
attr unit B
par Aloha.host[298] x 134.962m
attr unit m
par Aloha.host[298] y 54.5067m
attr unit m
par Aloha.host[298] txrate 1000Bps
attr unit Bps
par Aloha.host[299] typename "\"Host\""
par Aloha.host[299] arrrate 0.4
par Aloha.host[299] packet_size 1B
attr unit B
par Aloha.host[299] x 158.171m
attr unit m
par Aloha.host[299] y 125.768m
attr unit m
par Aloha.host[299] txrate 1000Bps
attr unit Bps
par Aloha.host[300] typename "\"Host\""
par Aloha.host[300] arrrate 0.4
par Aloha.host[300] packet_size 1B
attr unit B
par Aloha.host[300] x 196.537m
attr unit m
par Aloha.host[300] y 119.381m
attr unit m
par Aloha.host[300] txrate 1000Bps
attr unit Bps
par Aloha.host[301] typename "\"Host\""
par Aloha.host[301] arrrate 0.4
par Aloha.host[301] packet_size 1B
attr unit B
par Aloha.host[301] x 16.8161m
attr unit m
par Aloha.host[301] y 196.561m
attr unit m
par Aloha.host[301] txrate 1000Bps
attr unit Bps
par Aloha.host[302] typename "\"Host\""
par Aloha.host[302] arrrate 0.4
par Aloha.host[302] packet_size 1B
attr unit B
par Aloha.host[302] x 126.242m
attr unit m
par Aloha.host[302] y 123.383m
attr unit m
par Aloha.host[302] txrate 1000Bps
attr unit Bps
par Aloha.host[303] typename "\"Host\""
par Aloha.host[303] arrrate 0.4
par Aloha.host[303] packet_size 1B
attr unit B
par Aloha.host[303] x 115.395m
attr unit m
par Aloha.host[303] y 114.227m
attr unit m
par Aloha.host[303] txrate 1000Bps
attr unit Bps
par Aloha.host[304] typename "\"Host\""
par Aloha.host[304] arrrate 0.4
par Aloha.host[304] packet_size 1B
attr unit B
par Aloha.host[304] x 130.128m
attr unit m
par Aloha.host[304] y 141.991m
attr unit m
par Aloha.host[304] txrate 1000Bps
attr unit Bps
par Aloha.host[305] typename "\"Host\""
par Aloha.host[305] arrrate 0.4
par Aloha.host[305] packet_size 1B
attr unit B
par Aloha.host[305] x 108.636m
attr unit m
par Aloha.host[305] y 64.2929m
attr unit m
par Aloha.host[305] txrate 1000Bps
attr unit Bps
par Aloha.host[306] typename "\"Host\""
par Aloha.host[306] arrrate 0.4
par Aloha.host[306] packet_size 1B
attr unit B
par Aloha.host[306] x 111.473m
attr unit m
par Aloha.host[306] y 83.1198m
attr unit m
par Aloha.host[306] txrate 1000Bps
attr unit Bps
par Aloha.host[307] typename "\"Host\""
par Aloha.host[307] arrrate 0.4
par Aloha.host[307] packet_size 1B
attr unit B
par Aloha.host[307] x 173.711m
attr unit m
par Aloha.host[307] y 114.22m
attr unit m
par Aloha.host[307] txrate 1000Bps
attr unit Bps
par Aloha.host[308] typename "\"Host\""
par Aloha.host[308] arrrate 0.4
par Aloha.host[308] packet_size 1B
attr unit B
par Aloha.host[308] x 90.4023m
attr unit m
par Aloha.host[308] y 35.8001m
attr unit m
par Aloha.host[308] txrate 1000Bps
attr unit Bps
par Aloha.host[309] typename "\"Host\""
par Aloha.host[309] arrrate 0.4
par Aloha.host[309] packet_size 1B
attr unit B
par Aloha.host[309] x 106.995m
attr unit m
par Aloha.host[309] y 139.85m
attr unit m
par Aloha.host[309] txrate 1000Bps
attr unit Bps
par Aloha.host[310] typename "\"Host\""
par Aloha.host[310] arrrate 0.4
par Aloha.host[310] packet_size 1B
attr unit B
par Aloha.host[310] x 138.193m
attr unit m
par Aloha.host[310] y 89.9678m
attr unit m
par Aloha.host[310] txrate 1000Bps
attr unit Bps
par Aloha.host[311] typename "\"Host\""
par Aloha.host[311] arrrate 0.4
par Aloha.host[311] packet_size 1B
attr unit B
par Aloha.host[311] x 17.899m
attr unit m
par Aloha.host[311] y 82.4862m
attr unit m
par Aloha.host[311] txrate 1000Bps
attr unit Bps
par Aloha.host[312] typename "\"Host\""
par Aloha.host[312] arrrate 0.4
par Aloha.host[312] packet_size 1B
attr unit B
par Aloha.host[312] x 86.3851m
attr unit m
par Aloha.host[312] y 193.346m
attr unit m
par Aloha.host[312] txrate 1000Bps
attr unit Bps
par Aloha.host[313] typename "\"Host\""
par Aloha.host[313] arrrate 0.4
par Aloha.host[313] packet_size 1B
attr unit B
par Aloha.host[313] x 20.4268m
attr unit m
par Aloha.host[313] y 10.8014m
attr unit m
par Aloha.host[313] txrate 1000Bps
attr unit Bps
par Aloha.host[314] typename "\"Host\""
par Aloha.host[314] arrrate 0.4
par Aloha.host[314] packet_size 1B
attr unit B
par Aloha.host[314] x 27.562m
attr unit m
par Aloha.host[314] y 144.488m
attr unit m
par Aloha.host[314] txrate 1000Bps
attr unit Bps
par Aloha.host[315] typename "\"Host\""
[...]
par Aloha.host[922] packet_size 1B
attr unit B
par Aloha.host[922] x 189.827m
attr unit m
par Aloha.host[922] y 155.107m
attr unit m
par Aloha.host[922] txrate 1000Bps
attr unit Bps
par Aloha.host[923] typename "\"Host\""
par Aloha.host[923] arrrate 0.4
par Aloha.host[923] packet_size 1B
attr unit B
par Aloha.host[923] x 83.0033m
attr unit m
par Aloha.host[923] y 176.634m
attr unit m
par Aloha.host[923] txrate 1000Bps
attr unit Bps
par Aloha.host[924] typename "\"Host\""
par Aloha.host[924] arrrate 0.4
par Aloha.host[924] packet_size 1B
attr unit B
par Aloha.host[924] x 165.49m
attr unit m
par Aloha.host[924] y 26.3076m
attr unit m
par Aloha.host[924] txrate 1000Bps
attr unit Bps
par Aloha.host[925] typename "\"Host\""
par Aloha.host[925] arrrate 0.4
par Aloha.host[925] packet_size 1B
attr unit B
par Aloha.host[925] x 164.783m
attr unit m
par Aloha.host[925] y 124.162m
attr unit m
par Aloha.host[925] txrate 1000Bps
attr unit Bps
par Aloha.host[926] typename "\"Host\""
par Aloha.host[926] arrrate 0.4
par Aloha.host[926] packet_size 1B
attr unit B
par Aloha.host[926] x 136.504m
attr unit m
par Aloha.host[926] y 83.4388m
attr unit m
par Aloha.host[926] txrate 1000Bps
attr unit Bps
par Aloha.host[927] typename "\"Host\""
par Aloha.host[927] arrrate 0.4
par Aloha.host[927] packet_size 1B
attr unit B
par Aloha.host[927] x 10.5581m
attr unit m
par Aloha.host[927] y 143.365m
attr unit m
par Aloha.host[927] txrate 1000Bps
attr unit Bps
par Aloha.host[928] typename "\"Host\""
par Aloha.host[928] arrrate 0.4
par Aloha.host[928] packet_size 1B
attr unit B
par Aloha.host[928] x 130.941m
attr unit m
par Aloha.host[928] y 91.5213m
attr unit m
par Aloha.host[928] txrate 1000Bps
attr unit Bps
par Aloha.host[929] typename "\"Host\""
par Aloha.host[929] arrrate 0.4
par Aloha.host[929] packet_size 1B
attr unit B
par Aloha.host[929] x 89.3122m
attr unit m
par Aloha.host[929] y 176.426m
attr unit m
par Aloha.host[929] txrate 1000Bps
attr unit Bps
par Aloha.host[930] typename "\"Host\""
par Aloha.host[930] arrrate 0.4
par Aloha.host[930] packet_size 1B
attr unit B
par Aloha.host[930] x 62.0882m
attr unit m
par Aloha.host[930] y 185.104m
attr unit m
par Aloha.host[930] txrate 1000Bps
attr unit Bps
par Aloha.host[931] typename "\"Host\""
par Aloha.host[931] arrrate 0.4
par Aloha.host[931] packet_size 1B
attr unit B
par Aloha.host[931] x 103.776m
attr unit m
par Aloha.host[931] y 8.30924m
attr unit m
par Aloha.host[931] txrate 1000Bps
attr unit Bps
par Aloha.host[932] typename "\"Host\""
par Aloha.host[932] arrrate 0.4
par Aloha.host[932] packet_size 1B
attr unit B
par Aloha.host[932] x 132.914m
attr unit m
par Aloha.host[932] y 31.7461m
attr unit m
par Aloha.host[932] txrate 1000Bps
attr unit Bps
par Aloha.host[933] typename "\"Host\""
par Aloha.host[933] arrrate 0.4
par Aloha.host[933] packet_size 1B
attr unit B
par Aloha.host[933] x 78.0209m
attr unit m
par Aloha.host[933] y 123.804m
attr unit m
par Aloha.host[933] txrate 1000Bps
attr unit Bps
par Aloha.host[934] typename "\"Host\""
par Aloha.host[934] arrrate 0.4
par Aloha.host[934] packet_size 1B
attr unit B
par Aloha.host[934] x 81.7686m
attr unit m
par Aloha.host[934] y 52.1286m
attr unit m
par Aloha.host[934] txrate 1000Bps
attr unit Bps
par Aloha.host[935] typename "\"Host\""
par Aloha.host[935] arrrate 0.4
par Aloha.host[935] packet_size 1B
attr unit B
par Aloha.host[935] x 43.0815m
attr unit m
par Aloha.host[935] y 125.18m
attr unit m
par Aloha.host[935] txrate 1000Bps
attr unit Bps
par Aloha.host[936] typename "\"Host\""
par Aloha.host[936] arrrate 0.4
par Aloha.host[936] packet_size 1B
attr unit B
par Aloha.host[936] x 33.2955m
attr unit m
par Aloha.host[936] y 87.5917m
attr unit m
par Aloha.host[936] txrate 1000Bps
attr unit Bps
par Aloha.host[937] typename "\"Host\""
par Aloha.host[937] arrrate 0.4
par Aloha.host[937] packet_size 1B
attr unit B
par Aloha.host[937] x 124.551m
attr unit m
par Aloha.host[937] y 84.151m
attr unit m
par Aloha.host[937] txrate 1000Bps
attr unit Bps
par Aloha.host[938] typename "\"Host\""
par Aloha.host[938] arrrate 0.4
par Aloha.host[938] packet_size 1B
attr unit B
par Aloha.host[938] x 194.945m
attr unit m
par Aloha.host[938] y 4.80205m
attr unit m
par Aloha.host[938] txrate 1000Bps
attr unit Bps
par Aloha.host[939] typename "\"Host\""
par Aloha.host[939] arrrate 0.4
par Aloha.host[939] packet_size 1B
attr unit B
par Aloha.host[939] x 19.6199m
attr unit m
par Aloha.host[939] y 196.17m
attr unit m
par Aloha.host[939] txrate 1000Bps
attr unit Bps
par Aloha.host[940] typename "\"Host\""
par Aloha.host[940] arrrate 0.4
par Aloha.host[940] packet_size 1B
attr unit B
par Aloha.host[940] x 131.388m
attr unit m
par Aloha.host[940] y 2.43069m
attr unit m
par Aloha.host[940] txrate 1000Bps
attr unit Bps
par Aloha.host[941] typename "\"Host\""
par Aloha.host[941] arrrate 0.4
par Aloha.host[941] packet_size 1B
attr unit B
par Aloha.host[941] x 119.939m
attr unit m
par Aloha.host[941] y 54.8109m
attr unit m
par Aloha.host[941] txrate 1000Bps
attr unit Bps
par Aloha.host[942] typename "\"Host\""
par Aloha.host[942] arrrate 0.4
par Aloha.host[942] packet_size 1B
attr unit B
par Aloha.host[942] x 149.529m
attr unit m
par Aloha.host[942] y 36.0841m
attr unit m
par Aloha.host[942] txrate 1000Bps
attr unit Bps
par Aloha.host[943] typename "\"Host\""
par Aloha.host[943] arrrate 0.4
par Aloha.host[943] packet_size 1B
attr unit B
par Aloha.host[943] x 63.8281m
attr unit m
par Aloha.host[943] y 103.844m
attr unit m
par Aloha.host[943] txrate 1000Bps
attr unit Bps
par Aloha.host[944] typename "\"Host\""
par Aloha.host[944] arrrate 0.4
par Aloha.host[944] packet_size 1B
attr unit B
par Aloha.host[944] x 52.3247m
attr unit m
par Aloha.host[944] y 0.0790928m
attr unit m
par Aloha.host[944] txrate 1000Bps
attr unit Bps
par Aloha.host[945] typename "\"Host\""
par Aloha.host[945] arrrate 0.4
par Aloha.host[945] packet_size 1B
attr unit B
par Aloha.host[945] x 57.4234m
attr unit m
par Aloha.host[945] y 43.0993m
attr unit m
par Aloha.host[945] txrate 1000Bps
attr unit Bps
par Aloha.host[946] typename "\"Host\""
par Aloha.host[946] arrrate 0.4
par Aloha.host[946] packet_size 1B
attr unit B
par Aloha.host[946] x 167.563m
attr unit m
par Aloha.host[946] y 87.8024m
attr unit m
par Aloha.host[946] txrate 1000Bps
attr unit Bps
par Aloha.host[947] typename "\"Host\""
par Aloha.host[947] arrrate 0.4
par Aloha.host[947] packet_size 1B
attr unit B
par Aloha.host[947] x 169.765m
attr unit m
par Aloha.host[947] y 189.559m
attr unit m
par Aloha.host[947] txrate 1000Bps
attr unit Bps
par Aloha.host[948] typename "\"Host\""
par Aloha.host[948] arrrate 0.4
par Aloha.host[948] packet_size 1B
attr unit B
par Aloha.host[948] x 162.553m
attr unit m
par Aloha.host[948] y 134.755m
attr unit m
par Aloha.host[948] txrate 1000Bps
attr unit Bps
par Aloha.host[949] typename "\"Host\""
par Aloha.host[949] arrrate 0.4
par Aloha.host[949] packet_size 1B
attr unit B
par Aloha.host[949] x 55.7211m
attr unit m
par Aloha.host[949] y 23.455m
attr unit m
par Aloha.host[949] txrate 1000Bps
attr unit Bps
par Aloha.host[950] typename "\"Host\""
par Aloha.host[950] arrrate 0.4
par Aloha.host[950] packet_size 1B
attr unit B
par Aloha.host[950] x 75.5681m
attr unit m
par Aloha.host[950] y 164.364m
attr unit m
par Aloha.host[950] txrate 1000Bps
attr unit Bps
par Aloha.host[951] typename "\"Host\""
par Aloha.host[951] arrrate 0.4
par Aloha.host[951] packet_size 1B
attr unit B
par Aloha.host[951] x 58.0504m
attr unit m
par Aloha.host[951] y 150.001m
attr unit m
par Aloha.host[951] txrate 1000Bps
attr unit Bps
par Aloha.host[952] typename "\"Host\""
par Aloha.host[952] arrrate 0.4
par Aloha.host[952] packet_size 1B
attr unit B
par Aloha.host[952] x 137.274m
attr unit m
par Aloha.host[952] y 119.994m
attr unit m
par Aloha.host[952] txrate 1000Bps
attr unit Bps
par Aloha.host[953] typename "\"Host\""
par Aloha.host[953] arrrate 0.4
par Aloha.host[953] packet_size 1B
attr unit B
par Aloha.host[953] x 47.0223m
attr unit m
par Aloha.host[953] y 140.088m
attr unit m
par Aloha.host[953] txrate 1000Bps
attr unit Bps
par Aloha.host[954] typename "\"Host\""
par Aloha.host[954] arrrate 0.4
par Aloha.host[954] packet_size 1B
attr unit B
par Aloha.host[954] x 148.607m
attr unit m
par Aloha.host[954] y 171.81m
attr unit m
par Aloha.host[954] txrate 1000Bps
attr unit Bps
par Aloha.host[955] typename "\"Host\""
par Aloha.host[955] arrrate 0.4
par Aloha.host[955] packet_size 1B
attr unit B
par Aloha.host[955] x 158.589m
attr unit m
par Aloha.host[955] y 121.434m
attr unit m
par Aloha.host[955] txrate 1000Bps
attr unit Bps
par Aloha.host[956] typename "\"Host\""
par Aloha.host[956] arrrate 0.4
par Aloha.host[956] packet_size 1B
attr unit B
par Aloha.host[956] x 106.671m
attr unit m
par Aloha.host[956] y 94.5892m
attr unit m
par Aloha.host[956] txrate 1000Bps
attr unit Bps
par Aloha.host[957] typename "\"Host\""
par Aloha.host[957] arrrate 0.4
par Aloha.host[957] packet_size 1B
attr unit B
par Aloha.host[957] x 34.9019m
attr unit m
par Aloha.host[957] y 6.67003m
attr unit m
par Aloha.host[957] txrate 1000Bps
attr unit Bps
par Aloha.host[958] typename "\"Host\""
par Aloha.host[958] arrrate 0.4
par Aloha.host[958] packet_size 1B
attr unit B
par Aloha.host[958] x 52.5051m
attr unit m
par Aloha.host[958] y 185.697m
attr unit m
par Aloha.host[958] txrate 1000Bps
attr unit Bps
par Aloha.host[959] typename "\"Host\""
par Aloha.host[959] arrrate 0.4
par Aloha.host[959] packet_size 1B
attr unit B
par Aloha.host[959] x 113.442m
attr unit m
par Aloha.host[959] y 64.0179m
attr unit m
par Aloha.host[959] txrate 1000Bps
attr unit Bps
par Aloha.host[960] typename "\"Host\""
par Aloha.host[960] arrrate 0.4
par Aloha.host[960] packet_size 1B
attr unit B
par Aloha.host[960] x 147.029m
attr unit m
par Aloha.host[960] y 4.43817m
attr unit m
par Aloha.host[960] txrate 1000Bps
attr unit Bps
par Aloha.host[961] typename "\"Host\""
par Aloha.host[961] arrrate 0.4
par Aloha.host[961] packet_size 1B
attr unit B
par Aloha.host[961] x 40.1673m
attr unit m
par Aloha.host[961] y 12.6362m
attr unit m
par Aloha.host[961] txrate 1000Bps
attr unit Bps
par Aloha.host[962] typename "\"Host\""
par Aloha.host[962] arrrate 0.4
par Aloha.host[962] packet_size 1B
attr unit B
par Aloha.host[962] x 129.642m
attr unit m
par Aloha.host[962] y 77.9928m
attr unit m
par Aloha.host[962] txrate 1000Bps
attr unit Bps
par Aloha.host[963] typename "\"Host\""
par Aloha.host[963] arrrate 0.4
par Aloha.host[963] packet_size 1B
attr unit B
par Aloha.host[963] x 181.72m
attr unit m
par Aloha.host[963] y 191.662m
attr unit m
par Aloha.host[963] txrate 1000Bps
attr unit Bps
par Aloha.host[964] typename "\"Host\""
par Aloha.host[964] arrrate 0.4
par Aloha.host[964] packet_size 1B
attr unit B
par Aloha.host[964] x 146.445m
attr unit m
par Aloha.host[964] y 53.797m
attr unit m
par Aloha.host[964] txrate 1000Bps
attr unit Bps
par Aloha.host[965] typename "\"Host\""
par Aloha.host[965] arrrate 0.4
par Aloha.host[965] packet_size 1B
attr unit B
par Aloha.host[965] x 177.683m
attr unit m
par Aloha.host[965] y 27.6658m
attr unit m
par Aloha.host[965] txrate 1000Bps
attr unit Bps
par Aloha.host[966] typename "\"Host\""
par Aloha.host[966] arrrate 0.4
par Aloha.host[966] packet_size 1B
attr unit B
par Aloha.host[966] x 191.755m
attr unit m
par Aloha.host[966] y 105.111m
attr unit m
par Aloha.host[966] txrate 1000Bps
attr unit Bps
par Aloha.host[967] typename "\"Host\""
par Aloha.host[967] arrrate 0.4
par Aloha.host[967] packet_size 1B
attr unit B
par Aloha.host[967] x 54.8965m
attr unit m
par Aloha.host[967] y 27.5583m
attr unit m
par Aloha.host[967] txrate 1000Bps
attr unit Bps
par Aloha.host[968] typename "\"Host\""
par Aloha.host[968] arrrate 0.4
par Aloha.host[968] packet_size 1B
attr unit B
par Aloha.host[968] x 41.608m
attr unit m
par Aloha.host[968] y 116.463m
attr unit m
par Aloha.host[968] txrate 1000Bps
attr unit Bps
par Aloha.host[969] typename "\"Host\""
par Aloha.host[969] arrrate 0.4
par Aloha.host[969] packet_size 1B
attr unit B
par Aloha.host[969] x 180.124m
attr unit m
par Aloha.host[969] y 50.405m
attr unit m
par Aloha.host[969] txrate 1000Bps
attr unit Bps
par Aloha.host[970] typename "\"Host\""
par Aloha.host[970] arrrate 0.4
par Aloha.host[970] packet_size 1B
attr unit B
par Aloha.host[970] x 77.9039m
attr unit m
par Aloha.host[970] y 119.231m
attr unit m
par Aloha.host[970] txrate 1000Bps
attr unit Bps
par Aloha.host[971] typename "\"Host\""
par Aloha.host[971] arrrate 0.4
par Aloha.host[971] packet_size 1B
attr unit B
par Aloha.host[971] x 21.5825m
attr unit m
par Aloha.host[971] y 97.1859m
attr unit m
par Aloha.host[971] txrate 1000Bps
attr unit Bps
par Aloha.host[972] typename "\"Host\""
par Aloha.host[972] arrrate 0.4
par Aloha.host[972] packet_size 1B
attr unit B
par Aloha.host[972] x 124.697m
attr unit m
par Aloha.host[972] y 114.032m
attr unit m
par Aloha.host[972] txrate 1000Bps
attr unit Bps
par Aloha.host[973] typename "\"Host\""
par Aloha.host[973] arrrate 0.4
par Aloha.host[973] packet_size 1B
attr unit B
par Aloha.host[973] x 95.7068m
attr unit m
par Aloha.host[973] y 111.01m
attr unit m
par Aloha.host[973] txrate 1000Bps
attr unit Bps
par Aloha.host[974] typename "\"Host\""
par Aloha.host[974] arrrate 0.4
par Aloha.host[974] packet_size 1B
attr unit B
par Aloha.host[974] x 38.4071m
attr unit m
par Aloha.host[974] y 187.58m
attr unit m
par Aloha.host[974] txrate 1000Bps
attr unit Bps
par Aloha.host[975] typename "\"Host\""
par Aloha.host[975] arrrate 0.4
par Aloha.host[975] packet_size 1B
attr unit B
par Aloha.host[975] x 183.236m
attr unit m
par Aloha.host[975] y 45.4361m
attr unit m
par Aloha.host[975] txrate 1000Bps
attr unit Bps
par Aloha.host[976] typename "\"Host\""
par Aloha.host[976] arrrate 0.4
par Aloha.host[976] packet_size 1B
attr unit B
par Aloha.host[976] x 95.9628m
attr unit m
par Aloha.host[976] y 137.127m
attr unit m
par Aloha.host[976] txrate 1000Bps
attr unit Bps
par Aloha.host[977] typename "\"Host\""
par Aloha.host[977] arrrate 0.4
par Aloha.host[977] packet_size 1B
attr unit B
par Aloha.host[977] x 198.235m
attr unit m
par Aloha.host[977] y 71.8334m
attr unit m
par Aloha.host[977] txrate 1000Bps
attr unit Bps
par Aloha.host[978] typename "\"Host\""
par Aloha.host[978] arrrate 0.4
par Aloha.host[978] packet_size 1B
attr unit B
par Aloha.host[978] x 56.2606m
attr unit m
par Aloha.host[978] y 35.1364m
attr unit m
par Aloha.host[978] txrate 1000Bps
attr unit Bps
par Aloha.host[979] typename "\"Host\""
par Aloha.host[979] arrrate 0.4
par Aloha.host[979] packet_size 1B
attr unit B
par Aloha.host[979] x 11.9262m
attr unit m
par Aloha.host[979] y 65.6448m
attr unit m
par Aloha.host[979] txrate 1000Bps
attr unit Bps
par Aloha.host[980] typename "\"Host\""
par Aloha.host[980] arrrate 0.4
par Aloha.host[980] packet_size 1B
attr unit B
par Aloha.host[980] x 181.529m
attr unit m
par Aloha.host[980] y 30.237m
attr unit m
par Aloha.host[980] txrate 1000Bps
attr unit Bps
par Aloha.host[981] typename "\"Host\""
par Aloha.host[981] arrrate 0.4
par Aloha.host[981] packet_size 1B
attr unit B
par Aloha.host[981] x 59.2485m
attr unit m
par Aloha.host[981] y 42.888m
attr unit m
par Aloha.host[981] txrate 1000Bps
attr unit Bps
par Aloha.host[982] typename "\"Host\""
par Aloha.host[982] arrrate 0.4
par Aloha.host[982] packet_size 1B
attr unit B
par Aloha.host[982] x 184.761m
attr unit m
par Aloha.host[982] y 107.59m
attr unit m
par Aloha.host[982] txrate 1000Bps
attr unit Bps
par Aloha.host[983] typename "\"Host\""
par Aloha.host[983] arrrate 0.4
par Aloha.host[983] packet_size 1B
attr unit B
par Aloha.host[983] x 96.9229m
attr unit m
par Aloha.host[983] y 33.5426m
attr unit m
par Aloha.host[983] txrate 1000Bps
attr unit Bps
par Aloha.host[984] typename "\"Host\""
par Aloha.host[984] arrrate 0.4
par Aloha.host[984] packet_size 1B
attr unit B
par Aloha.host[984] x 138.669m
attr unit m
par Aloha.host[984] y 194.201m
attr unit m
par Aloha.host[984] txrate 1000Bps
attr unit Bps
par Aloha.host[985] typename "\"Host\""
par Aloha.host[985] arrrate 0.4
par Aloha.host[985] packet_size 1B
attr unit B
par Aloha.host[985] x 23.2473m
attr unit m
par Aloha.host[985] y 176.575m
attr unit m
par Aloha.host[985] txrate 1000Bps
attr unit Bps
par Aloha.host[986] typename "\"Host\""
par Aloha.host[986] arrrate 0.4
par Aloha.host[986] packet_size 1B
attr unit B
par Aloha.host[986] x 52.9212m
attr unit m
par Aloha.host[986] y 73.1004m
attr unit m
par Aloha.host[986] txrate 1000Bps
attr unit Bps
par Aloha.host[987] typename "\"Host\""
par Aloha.host[987] arrrate 0.4
par Aloha.host[987] packet_size 1B
attr unit B
par Aloha.host[987] x 135.777m
attr unit m
par Aloha.host[987] y 37.9157m
attr unit m
par Aloha.host[987] txrate 1000Bps
attr unit Bps
par Aloha.host[988] typename "\"Host\""
par Aloha.host[988] arrrate 0.4
par Aloha.host[988] packet_size 1B
attr unit B
par Aloha.host[988] x 190.455m
attr unit m
par Aloha.host[988] y 61.4451m
attr unit m
par Aloha.host[988] txrate 1000Bps
attr unit Bps
par Aloha.host[989] typename "\"Host\""
par Aloha.host[989] arrrate 0.4
par Aloha.host[989] packet_size 1B
attr unit B
par Aloha.host[989] x 164m
attr unit m
par Aloha.host[989] y 149m
attr unit m
par Aloha.host[989] txrate 1000Bps
attr unit Bps
par Aloha.host[990] typename "\"Host\""
par Aloha.host[990] arrrate 0.4
par Aloha.host[990] packet_size 1B
attr unit B
par Aloha.host[990] x 180.905m
attr unit m
par Aloha.host[990] y 46.6209m
attr unit m
par Aloha.host[990] txrate 1000Bps
attr unit Bps
par Aloha.host[991] typename "\"Host\""
par Aloha.host[991] arrrate 0.4
par Aloha.host[991] packet_size 1B
attr unit B
par Aloha.host[991] x 154.938m
attr unit m
par Aloha.host[991] y 141.807m
attr unit m
par Aloha.host[991] txrate 1000Bps
attr unit Bps
par Aloha.host[992] typename "\"Host\""
par Aloha.host[992] arrrate 0.4
par Aloha.host[992] packet_size 1B
attr unit B
par Aloha.host[992] x 194.404m
attr unit m
par Aloha.host[992] y 39.5718m
attr unit m
par Aloha.host[992] txrate 1000Bps
attr unit Bps
par Aloha.host[993] typename "\"Host\""
par Aloha.host[993] arrrate 0.4
par Aloha.host[993] packet_size 1B
attr unit B
par Aloha.host[993] x 47.6138m
attr unit m
par Aloha.host[993] y 159.543m
attr unit m
par Aloha.host[993] txrate 1000Bps
attr unit Bps
par Aloha.host[994] typename "\"Host\""
par Aloha.host[994] arrrate 0.4
par Aloha.host[994] packet_size 1B
attr unit B
par Aloha.host[994] x 24.4753m
attr unit m
par Aloha.host[994] y 7.03752m
attr unit m
par Aloha.host[994] txrate 1000Bps
attr unit Bps
par Aloha.host[995] typename "\"Host\""
par Aloha.host[995] arrrate 0.4
par Aloha.host[995] packet_size 1B
attr unit B
par Aloha.host[995] x 48.1041m
attr unit m
par Aloha.host[995] y 115.286m
attr unit m
par Aloha.host[995] txrate 1000Bps
attr unit Bps
par Aloha.host[996] typename "\"Host\""
par Aloha.host[996] arrrate 0.4
par Aloha.host[996] packet_size 1B
attr unit B
par Aloha.host[996] x 116.016m
attr unit m
par Aloha.host[996] y 50.5341m
attr unit m
par Aloha.host[996] txrate 1000Bps
attr unit Bps
par Aloha.host[997] typename "\"Host\""
par Aloha.host[997] arrrate 0.4
par Aloha.host[997] packet_size 1B
attr unit B
par Aloha.host[997] x 74.1396m
attr unit m
par Aloha.host[997] y 14.8812m
attr unit m
par Aloha.host[997] txrate 1000Bps
attr unit Bps
par Aloha.host[998] typename "\"Host\""
par Aloha.host[998] arrrate 0.4
par Aloha.host[998] packet_size 1B
attr unit B
par Aloha.host[998] x 7.03308m
attr unit m
par Aloha.host[998] y 169.733m
attr unit m
par Aloha.host[998] txrate 1000Bps
attr unit Bps
par Aloha.host[999] typename "\"Host\""
par Aloha.host[999] arrrate 0.4
par Aloha.host[999] packet_size 1B
attr unit B
par Aloha.host[999] x 24.9388m
attr unit m
par Aloha.host[999] y 26.7071m
attr unit m
par Aloha.host[999] txrate 1000Bps
attr unit Bps
par Aloha.server typename "\"Server\""
par Aloha.server x 56.2371m
attr unit m
par Aloha.server y 142.236m
attr unit m
scalar Aloha.server prob_succ 0.44925133425084
scalar Aloha.server uti 17.966675
par Aloha typename "\"Aloha\""
par Aloha numHosts 1000

