version 3
run General-0-20220605-13:52:37-720135
attr configname General
attr datetime 20220605-13:52:37
attr datetimef 20220605-135237
attr experiment General
attr inifile aloha.ini
attr iterationvars ""
attr iterationvarsd ""
attr iterationvarsf ""
attr measurement ""
attr network Aloha
attr processid 720135
attr repetition 0
attr replication #0
attr resultdir results
attr runnumber 0
attr seedset 0
config network Aloha
config cmdenv-performance-display false
config **.x "uniform(0m, 200m)"
config **.y "uniform(0m, 200m)"
config *.numHosts 1000
config **.packet_size 1B
config **.txrate 10000Bps
config **.arrrate 10
config **.retransrate 10

par Aloha.host[0] typename "\"Host\""
par Aloha.host[0] arrrate 10
par Aloha.host[0] retransrate 10
par Aloha.host[0] packet_size 1B
attr unit B
par Aloha.host[0] x 109.763m
attr unit m
par Aloha.host[0] y 118.569m
attr unit m
par Aloha.host[0] txrate 10000Bps
attr unit Bps
par Aloha.host[1] typename "\"Host\""
par Aloha.host[1] arrrate 10
par Aloha.host[1] retransrate 10
par Aloha.host[1] packet_size 1B
attr unit B
par Aloha.host[1] x 143.038m
attr unit m
par Aloha.host[1] y 168.853m
attr unit m
par Aloha.host[1] txrate 10000Bps
attr unit Bps
par Aloha.host[2] typename "\"Host\""
par Aloha.host[2] arrrate 10
par Aloha.host[2] retransrate 10
par Aloha.host[2] packet_size 1B
attr unit B
par Aloha.host[2] x 120.553m
attr unit m
par Aloha.host[2] y 171.589m
attr unit m
par Aloha.host[2] txrate 10000Bps
attr unit Bps
par Aloha.host[3] typename "\"Host\""
par Aloha.host[3] arrrate 10
par Aloha.host[3] retransrate 10
par Aloha.host[3] packet_size 1B
attr unit B
par Aloha.host[3] x 108.977m
attr unit m
par Aloha.host[3] y 169.45m
attr unit m
par Aloha.host[3] txrate 10000Bps
attr unit Bps
par Aloha.host[4] typename "\"Host\""
par Aloha.host[4] arrrate 10
par Aloha.host[4] retransrate 10
par Aloha.host[4] packet_size 1B
attr unit B
par Aloha.host[4] x 84.731m
attr unit m
par Aloha.host[4] y 124.713m
attr unit m
par Aloha.host[4] txrate 10000Bps
attr unit Bps
par Aloha.host[5] typename "\"Host\""
par Aloha.host[5] arrrate 10
par Aloha.host[5] retransrate 10
par Aloha.host[5] packet_size 1B
attr unit B
par Aloha.host[5] x 129.179m
attr unit m
par Aloha.host[5] y 76.8763m
attr unit m
par Aloha.host[5] txrate 10000Bps
attr unit Bps
par Aloha.host[6] typename "\"Host\""
par Aloha.host[6] arrrate 10
par Aloha.host[6] retransrate 10
par Aloha.host[6] packet_size 1B
attr unit B
par Aloha.host[6] x 87.5174m
attr unit m
par Aloha.host[6] y 59.5069m
attr unit m
par Aloha.host[6] txrate 10000Bps
attr unit Bps
par Aloha.host[7] typename "\"Host\""
par Aloha.host[7] arrrate 10
par Aloha.host[7] retransrate 10
par Aloha.host[7] packet_size 1B
attr unit B
par Aloha.host[7] x 178.355m
attr unit m
par Aloha.host[7] y 11.3426m
attr unit m
par Aloha.host[7] txrate 10000Bps
attr unit Bps
par Aloha.host[8] typename "\"Host\""
par Aloha.host[8] arrrate 10
par Aloha.host[8] retransrate 10
par Aloha.host[8] packet_size 1B
attr unit B
par Aloha.host[8] x 192.733m
attr unit m
par Aloha.host[8] y 54.5313m
attr unit m
par Aloha.host[8] txrate 10000Bps
attr unit Bps
par Aloha.host[9] typename "\"Host\""
par Aloha.host[9] arrrate 10
par Aloha.host[9] retransrate 10
par Aloha.host[9] packet_size 1B
attr unit B
par Aloha.host[9] x 76.6883m
attr unit m
par Aloha.host[9] y 95.533m
attr unit m
par Aloha.host[9] txrate 10000Bps
attr unit Bps
par Aloha.host[10] typename "\"Host\""
par Aloha.host[10] arrrate 10
par Aloha.host[10] retransrate 10
par Aloha.host[10] packet_size 1B
attr unit B
par Aloha.host[10] x 158.345m
attr unit m
par Aloha.host[10] y 162.434m
attr unit m
par Aloha.host[10] txrate 10000Bps
attr unit Bps
par Aloha.host[11] typename "\"Host\""
par Aloha.host[11] arrrate 10
par Aloha.host[11] retransrate 10
par Aloha.host[11] packet_size 1B
attr unit B
par Aloha.host[11] x 105.779m
attr unit m
par Aloha.host[11] y 95.9954m
attr unit m
par Aloha.host[11] txrate 10000Bps
attr unit Bps
par Aloha.host[12] typename "\"Host\""
par Aloha.host[12] arrrate 10
par Aloha.host[12] retransrate 10
par Aloha.host[12] packet_size 1B
attr unit B
par Aloha.host[12] x 113.609m
attr unit m
par Aloha.host[12] y 78.557m
attr unit m
par Aloha.host[12] txrate 10000Bps
attr unit Bps
par Aloha.host[13] typename "\"Host\""
par Aloha.host[13] arrrate 10
par Aloha.host[13] retransrate 10
par Aloha.host[13] packet_size 1B
attr unit B
par Aloha.host[13] x 185.119m
attr unit m
par Aloha.host[13] y 167.216m
attr unit m
par Aloha.host[13] txrate 10000Bps
attr unit Bps
par Aloha.host[14] typename "\"Host\""
par Aloha.host[14] arrrate 10
par Aloha.host[14] retransrate 10
par Aloha.host[14] packet_size 1B
attr unit B
par Aloha.host[14] x 14.2072m
attr unit m
par Aloha.host[14] y 67.4792m
attr unit m
par Aloha.host[14] txrate 10000Bps
attr unit Bps
par Aloha.host[15] typename "\"Host\""
par Aloha.host[15] arrrate 10
par Aloha.host[15] retransrate 10
par Aloha.host[15] packet_size 1B
attr unit B
par Aloha.host[15] x 17.4259m
attr unit m
par Aloha.host[15] y 129.634m
attr unit m
par Aloha.host[15] txrate 10000Bps
attr unit Bps
par Aloha.host[16] typename "\"Host\""
par Aloha.host[16] arrrate 10
par Aloha.host[16] retransrate 10
par Aloha.host[16] packet_size 1B
attr unit B
par Aloha.host[16] x 4.04368m
attr unit m
par Aloha.host[16] y 73.6483m
attr unit m
par Aloha.host[16] txrate 10000Bps
attr unit Bps
par Aloha.host[17] typename "\"Host\""
par Aloha.host[17] arrrate 10
par Aloha.host[17] retransrate 10
par Aloha.host[17] packet_size 1B
attr unit B
par Aloha.host[17] x 166.524m
attr unit m
par Aloha.host[17] y 191.431m
attr unit m
par Aloha.host[17] txrate 10000Bps
attr unit Bps
par Aloha.host[18] typename "\"Host\""
par Aloha.host[18] arrrate 10
par Aloha.host[18] retransrate 10
par Aloha.host[18] packet_size 1B
attr unit B
par Aloha.host[18] x 155.631m
attr unit m
par Aloha.host[18] y 28.0702m
attr unit m
par Aloha.host[18] txrate 10000Bps
attr unit Bps
par Aloha.host[19] typename "\"Host\""
par Aloha.host[19] arrrate 10
par Aloha.host[19] retransrate 10
par Aloha.host[19] packet_size 1B
attr unit B
par Aloha.host[19] x 174.002m
attr unit m
par Aloha.host[19] y 174.017m
attr unit m
par Aloha.host[19] txrate 10000Bps
attr unit Bps
par Aloha.host[20] typename "\"Host\""
par Aloha.host[20] arrrate 10
par Aloha.host[20] retransrate 10
par Aloha.host[20] packet_size 1B
attr unit B
par Aloha.host[20] x 195.724m
attr unit m
par Aloha.host[20] y 94.7216m
attr unit m
par Aloha.host[20] txrate 10000Bps
attr unit Bps
par Aloha.host[21] typename "\"Host\""
par Aloha.host[21] arrrate 10
par Aloha.host[21] retransrate 10
par Aloha.host[21] packet_size 1B
attr unit B
par Aloha.host[21] x 159.832m
attr unit m
par Aloha.host[21] y 160.182m
attr unit m
par Aloha.host[21] txrate 10000Bps
attr unit Bps
par Aloha.host[22] typename "\"Host\""
par Aloha.host[22] arrrate 10
par Aloha.host[22] retransrate 10
par Aloha.host[22] packet_size 1B
attr unit B
par Aloha.host[22] x 92.2959m
attr unit m
par Aloha.host[22] y 104.095m
attr unit m
par Aloha.host[22] txrate 10000Bps
attr unit Bps
par Aloha.host[23] typename "\"Host\""
par Aloha.host[23] arrrate 10
par Aloha.host[23] retransrate 10
par Aloha.host[23] packet_size 1B
attr unit B
par Aloha.host[23] x 156.106m
attr unit m
par Aloha.host[23] y 135.776m
attr unit m
par Aloha.host[23] txrate 10000Bps
attr unit Bps
par Aloha.host[24] typename "\"Host\""
par Aloha.host[24] arrrate 10
par Aloha.host[24] retransrate 10
par Aloha.host[24] packet_size 1B
attr unit B
par Aloha.host[24] x 23.6549m
attr unit m
par Aloha.host[24] y 144.127m
attr unit m
par Aloha.host[24] txrate 10000Bps
attr unit Bps
par Aloha.host[25] typename "\"Host\""
par Aloha.host[25] arrrate 10
par Aloha.host[25] retransrate 10
par Aloha.host[25] packet_size 1B
attr unit B
par Aloha.host[25] x 127.984m
attr unit m
par Aloha.host[25] y 116.404m
attr unit m
par Aloha.host[25] txrate 10000Bps
attr unit Bps
par Aloha.host[26] typename "\"Host\""
par Aloha.host[26] arrrate 10
par Aloha.host[26] retransrate 10
par Aloha.host[26] packet_size 1B
attr unit B
par Aloha.host[26] x 28.6707m
attr unit m
par Aloha.host[26] y 107.475m
attr unit m
par Aloha.host[26] txrate 10000Bps
attr unit Bps
par Aloha.host[27] typename "\"Host\""
par Aloha.host[27] arrrate 10
par Aloha.host[27] retransrate 10
par Aloha.host[27] packet_size 1B
attr unit B
par Aloha.host[27] x 188.934m
attr unit m
par Aloha.host[27] y 151.723m
attr unit m
par Aloha.host[27] txrate 10000Bps
attr unit Bps
par Aloha.host[28] typename "\"Host\""
par Aloha.host[28] arrrate 10
par Aloha.host[28] retransrate 10
par Aloha.host[28] packet_size 1B
attr unit B
par Aloha.host[28] x 104.37m
attr unit m
par Aloha.host[28] y 21.1815m
attr unit m
par Aloha.host[28] txrate 10000Bps
attr unit Bps
par Aloha.host[29] typename "\"Host\""
par Aloha.host[29] arrrate 10
par Aloha.host[29] retransrate 10
par Aloha.host[29] packet_size 1B
attr unit B
par Aloha.host[29] x 82.9324m
attr unit m
par Aloha.host[29] y 94.7201m
attr unit m
par Aloha.host[29] txrate 10000Bps
attr unit Bps
par Aloha.host[30] typename "\"Host\""
par Aloha.host[30] arrrate 10
par Aloha.host[30] retransrate 10
par Aloha.host[30] packet_size 1B
attr unit B
par Aloha.host[30] x 52.9111m
attr unit m
par Aloha.host[30] y 37.2665m
attr unit m
par Aloha.host[30] txrate 10000Bps
attr unit Bps
par Aloha.host[31] typename "\"Host\""
par Aloha.host[31] arrrate 10
par Aloha.host[31] retransrate 10
par Aloha.host[31] packet_size 1B
attr unit B
par Aloha.host[31] x 154.847m
attr unit m
par Aloha.host[31] y 147.384m
attr unit m
par Aloha.host[31] txrate 10000Bps
attr unit Bps
par Aloha.host[32] typename "\"Host\""
par Aloha.host[32] arrrate 10
par Aloha.host[32] retransrate 10
par Aloha.host[32] packet_size 1B
attr unit B
par Aloha.host[32] x 91.2301m
attr unit m
par Aloha.host[32] y 43.3101m
attr unit m
par Aloha.host[32] txrate 10000Bps
attr unit Bps
par Aloha.host[33] typename "\"Host\""
par Aloha.host[33] arrrate 10
par Aloha.host[33] retransrate 10
par Aloha.host[33] packet_size 1B
attr unit B
par Aloha.host[33] x 113.687m
attr unit m
par Aloha.host[33] y 27.0436m
attr unit m
par Aloha.host[33] txrate 10000Bps
attr unit Bps
par Aloha.host[34] typename "\"Host\""
par Aloha.host[34] arrrate 10
par Aloha.host[34] retransrate 10
par Aloha.host[34] packet_size 1B
attr unit B
par Aloha.host[34] x 3.75796m
attr unit m
par Aloha.host[34] y 64.8282m
attr unit m
par Aloha.host[34] txrate 10000Bps
attr unit Bps
par Aloha.host[35] typename "\"Host\""
par Aloha.host[35] arrrate 10
par Aloha.host[35] retransrate 10
par Aloha.host[35] packet_size 1B
attr unit B
par Aloha.host[35] x 123.527m
attr unit m
par Aloha.host[35] y 29.935m
attr unit m
par Aloha.host[35] txrate 10000Bps
attr unit Bps
par Aloha.host[36] typename "\"Host\""
par Aloha.host[36] arrrate 10
par Aloha.host[36] retransrate 10
par Aloha.host[36] packet_size 1B
attr unit B
par Aloha.host[36] x 122.419m
attr unit m
par Aloha.host[36] y 44.4643m
attr unit m
par Aloha.host[36] txrate 10000Bps
attr unit Bps
par Aloha.host[37] typename "\"Host\""
par Aloha.host[37] arrrate 10
par Aloha.host[37] retransrate 10
par Aloha.host[37] packet_size 1B
attr unit B
par Aloha.host[37] x 123.387m
attr unit m
par Aloha.host[37] y 77.2978m
attr unit m
par Aloha.host[37] txrate 10000Bps
attr unit Bps
par Aloha.host[38] typename "\"Host\""
par Aloha.host[38] arrrate 10
par Aloha.host[38] retransrate 10
par Aloha.host[38] packet_size 1B
attr unit B
par Aloha.host[38] x 188.75m
attr unit m
par Aloha.host[38] y 180.52m
attr unit m
par Aloha.host[38] txrate 10000Bps
attr unit Bps
par Aloha.host[39] typename "\"Host\""
par Aloha.host[39] arrrate 10
par Aloha.host[39] retransrate 10
par Aloha.host[39] packet_size 1B
attr unit B
par Aloha.host[39] x 136.364m
attr unit m
par Aloha.host[39] y 89.99m
attr unit m
par Aloha.host[39] txrate 10000Bps
attr unit Bps
par Aloha.host[40] typename "\"Host\""
par Aloha.host[40] arrrate 10
par Aloha.host[40] retransrate 10
par Aloha.host[40] packet_size 1B
attr unit B
par Aloha.host[40] x 71.9016m
attr unit m
par Aloha.host[40] y 122.613m
attr unit m
par Aloha.host[40] txrate 10000Bps
attr unit Bps
par Aloha.host[41] typename "\"Host\""
par Aloha.host[41] arrrate 10
par Aloha.host[41] retransrate 10
par Aloha.host[41] packet_size 1B
attr unit B
par Aloha.host[41] x 87.4064m
attr unit m
par Aloha.host[41] y 180.47m
attr unit m
par Aloha.host[41] txrate 10000Bps
attr unit Bps
par Aloha.host[42] typename "\"Host\""
par Aloha.host[42] arrrate 10
par Aloha.host[42] retransrate 10
par Aloha.host[42] packet_size 1B
attr unit B
par Aloha.host[42] x 139.526m
attr unit m
par Aloha.host[42] y 19.8561m
attr unit m
par Aloha.host[42] txrate 10000Bps
attr unit Bps
par Aloha.host[43] typename "\"Host\""
par Aloha.host[43] arrrate 10
par Aloha.host[43] retransrate 10
par Aloha.host[43] packet_size 1B
attr unit B
par Aloha.host[43] x 12.0451m
attr unit m
par Aloha.host[43] y 193.962m
attr unit m
par Aloha.host[43] txrate 10000Bps
attr unit Bps
par Aloha.host[44] typename "\"Host\""
par Aloha.host[44] arrrate 10
par Aloha.host[44] retransrate 10
par Aloha.host[44] packet_size 1B
attr unit B
par Aloha.host[44] x 133.353m
attr unit m
par Aloha.host[44] y 130.628m
attr unit m
par Aloha.host[44] txrate 10000Bps
attr unit Bps
par Aloha.host[45] typename "\"Host\""
par Aloha.host[45] arrrate 10
par Aloha.host[45] retransrate 10
par Aloha.host[45] packet_size 1B
attr unit B
par Aloha.host[45] x 134.128m
attr unit m
par Aloha.host[45] y 34.1819m
attr unit m
par Aloha.host[45] txrate 10000Bps
attr unit Bps
par Aloha.host[46] typename "\"Host\""
par Aloha.host[46] arrrate 10
par Aloha.host[46] retransrate 10
par Aloha.host[46] packet_size 1B
attr unit B
par Aloha.host[46] x 42.0765m
attr unit m
par Aloha.host[46] y 71.6304m
attr unit m
par Aloha.host[46] txrate 10000Bps
attr unit Bps
par Aloha.host[47] typename "\"Host\""
par Aloha.host[47] arrrate 10
par Aloha.host[47] retransrate 10
par Aloha.host[47] packet_size 1B
attr unit B
par Aloha.host[47] x 25.7853m
attr unit m
par Aloha.host[47] y 150.137m
attr unit m
par Aloha.host[47] txrate 10000Bps
attr unit Bps
par Aloha.host[48] typename "\"Host\""
par Aloha.host[48] arrrate 10
par Aloha.host[48] retransrate 10
par Aloha.host[48] packet_size 1B
attr unit B
par Aloha.host[48] x 63.0857m
attr unit m
par Aloha.host[48] y 121.566m
attr unit m
par Aloha.host[48] txrate 10000Bps
attr unit Bps
par Aloha.host[49] typename "\"Host\""
par Aloha.host[49] arrrate 10
par Aloha.host[49] retransrate 10
par Aloha.host[49] packet_size 1B
attr unit B
par Aloha.host[49] x 72.7422m
attr unit m
par Aloha.host[49] y 65.0094m
attr unit m
par Aloha.host[49] txrate 10000Bps
attr unit Bps
par Aloha.host[50] typename "\"Host\""
par Aloha.host[50] arrrate 10
par Aloha.host[50] retransrate 10
par Aloha.host[50] packet_size 1B
attr unit B
par Aloha.host[50] x 114.039m
attr unit m
par Aloha.host[50] y 7.68509m
attr unit m
par Aloha.host[50] txrate 10000Bps
attr unit Bps
par Aloha.host[51] typename "\"Host\""
par Aloha.host[51] arrrate 10
par Aloha.host[51] retransrate 10
par Aloha.host[51] packet_size 1B
attr unit B
par Aloha.host[51] x 87.7203m
attr unit m
par Aloha.host[51] y 126.855m
attr unit m
par Aloha.host[51] txrate 10000Bps
attr unit Bps
par Aloha.host[52] typename "\"Host\""
par Aloha.host[52] arrrate 10
par Aloha.host[52] retransrate 10
par Aloha.host[52] packet_size 1B
attr unit B
par Aloha.host[52] x 197.675m
attr unit m
par Aloha.host[52] y 191.79m
attr unit m
par Aloha.host[52] txrate 10000Bps
attr unit Bps
par Aloha.host[53] typename "\"Host\""
par Aloha.host[53] arrrate 10
par Aloha.host[53] retransrate 10
par Aloha.host[53] packet_size 1B
attr unit B
par Aloha.host[53] x 20.409m
attr unit m
par Aloha.host[53] y 130.558m
attr unit m
par Aloha.host[53] txrate 10000Bps
attr unit Bps
par Aloha.host[54] typename "\"Host\""
par Aloha.host[54] arrrate 10
par Aloha.host[54] retransrate 10
par Aloha.host[54] packet_size 1B
attr unit B
par Aloha.host[54] x 41.7754m
attr unit m
par Aloha.host[54] y 127.012m
attr unit m
par Aloha.host[54] txrate 10000Bps
attr unit Bps
par Aloha.host[55] typename "\"Host\""
par Aloha.host[55] arrrate 10
par Aloha.host[55] retransrate 10
par Aloha.host[55] packet_size 1B
attr unit B
par Aloha.host[55] x 32.2619m
attr unit m
par Aloha.host[55] y 199.06m
attr unit m
par Aloha.host[55] txrate 10000Bps
attr unit Bps
par Aloha.host[56] typename "\"Host\""
par Aloha.host[56] arrrate 10
par Aloha.host[56] retransrate 10
par Aloha.host[56] packet_size 1B
attr unit B
par Aloha.host[56] x 130.622m
attr unit m
par Aloha.host[56] y 116.37m
attr unit m
par Aloha.host[56] txrate 10000Bps
attr unit Bps
par Aloha.host[57] typename "\"Host\""
par Aloha.host[57] arrrate 10
par Aloha.host[57] retransrate 10
par Aloha.host[57] packet_size 1B
attr unit B
par Aloha.host[57] x 50.6583m
attr unit m
par Aloha.host[57] y 82.8737m
attr unit m
par Aloha.host[57] txrate 10000Bps
attr unit Bps
par Aloha.host[58] typename "\"Host\""
par Aloha.host[58] arrrate 10
par Aloha.host[58] retransrate 10
par Aloha.host[58] packet_size 1B
attr unit B
par Aloha.host[58] x 93.2622m
attr unit m
par Aloha.host[58] y 94.9395m
attr unit m
par Aloha.host[58] txrate 10000Bps
attr unit Bps
par Aloha.host[59] typename "\"Host\""
par Aloha.host[59] arrrate 10
par Aloha.host[59] retransrate 10
par Aloha.host[59] packet_size 1B
attr unit B
par Aloha.host[59] x 48.8851m
attr unit m
par Aloha.host[59] y 124.702m
attr unit m
par Aloha.host[59] txrate 10000Bps
attr unit Bps
par Aloha.host[60] typename "\"Host\""
par Aloha.host[60] arrrate 10
par Aloha.host[60] retransrate 10
par Aloha.host[60] packet_size 1B
attr unit B
par Aloha.host[60] x 31.7939m
attr unit m
par Aloha.host[60] y 67.6015m
attr unit m
par Aloha.host[60] txrate 10000Bps
attr unit Bps
par Aloha.host[61] typename "\"Host\""
par Aloha.host[61] arrrate 10
par Aloha.host[61] retransrate 10
par Aloha.host[61] packet_size 1B
attr unit B
par Aloha.host[61] x 22.075m
attr unit m
par Aloha.host[61] y 134.95m
attr unit m
par Aloha.host[61] txrate 10000Bps
attr unit Bps
par Aloha.host[62] typename "\"Host\""
par Aloha.host[62] arrrate 10
par Aloha.host[62] retransrate 10
par Aloha.host[62] packet_size 1B
attr unit B
par Aloha.host[62] x 131.266m
attr unit m
par Aloha.host[62] y 63.4403m
attr unit m
par Aloha.host[62] txrate 10000Bps
attr unit Bps
par Aloha.host[63] typename "\"Host\""
par Aloha.host[63] arrrate 10
par Aloha.host[63] retransrate 10
par Aloha.host[63] packet_size 1B
attr unit B
par Aloha.host[63] x 27.6366m
attr unit m
par Aloha.host[63] y 155.669m
attr unit m
par Aloha.host[63] txrate 10000Bps
attr unit Bps
par Aloha.host[64] typename "\"Host\""
par Aloha.host[64] arrrate 10
par Aloha.host[64] retransrate 10
par Aloha.host[64] packet_size 1B
attr unit B
par Aloha.host[64] x 39.3165m
attr unit m
par Aloha.host[64] y 189.914m
attr unit m
par Aloha.host[64] txrate 10000Bps
attr unit Bps
par Aloha.host[65] typename "\"Host\""
par Aloha.host[65] arrrate 10
par Aloha.host[65] retransrate 10
par Aloha.host[65] packet_size 1B
attr unit B
par Aloha.host[65] x 73.745m
attr unit m
par Aloha.host[65] y 132.505m
attr unit m
par Aloha.host[65] txrate 10000Bps
attr unit Bps
par Aloha.host[66] typename "\"Host\""
par Aloha.host[66] arrrate 10
par Aloha.host[66] retransrate 10
par Aloha.host[66] packet_size 1B
attr unit B
par Aloha.host[66] x 164.199m
attr unit m
par Aloha.host[66] y 2.71433m
attr unit m
par Aloha.host[66] txrate 10000Bps
attr unit Bps
par Aloha.host[67] typename "\"Host\""
par Aloha.host[67] arrrate 10
par Aloha.host[67] retransrate 10
par Aloha.host[67] packet_size 1B
attr unit B
par Aloha.host[67] x 19.4203m
attr unit m
par Aloha.host[67] y 124.569m
attr unit m
par Aloha.host[67] txrate 10000Bps
attr unit Bps
par Aloha.host[68] typename "\"Host\""
par Aloha.host[68] arrrate 10
par Aloha.host[68] retransrate 10
par Aloha.host[68] packet_size 1B
attr unit B
par Aloha.host[68] x 167.589m
attr unit m
par Aloha.host[68] y 134.732m
attr unit m
par Aloha.host[68] txrate 10000Bps
attr unit Bps
par Aloha.host[69] typename "\"Host\""
par Aloha.host[69] arrrate 10
par Aloha.host[69] retransrate 10
par Aloha.host[69] packet_size 1B
attr unit B
par Aloha.host[69] x 19.2197m
attr unit m
par Aloha.host[69] y 194.389m
attr unit m
par Aloha.host[69] txrate 10000Bps
attr unit Bps
par Aloha.host[70] typename "\"Host\""
par Aloha.host[70] arrrate 10
par Aloha.host[70] retransrate 10
par Aloha.host[70] packet_size 1B
attr unit B
par Aloha.host[70] x 195.292m
attr unit m
par Aloha.host[70] y 175.639m
attr unit m
par Aloha.host[70] txrate 10000Bps
attr unit Bps
par Aloha.host[71] typename "\"Host\""
par Aloha.host[71] arrrate 10
par Aloha.host[71] retransrate 10
par Aloha.host[71] packet_size 1B
attr unit B
par Aloha.host[71] x 93.7302m
attr unit m
par Aloha.host[71] y 101.925m
attr unit m
par Aloha.host[71] txrate 10000Bps
attr unit Bps
par Aloha.host[72] typename "\"Host\""
par Aloha.host[72] arrrate 10
par Aloha.host[72] retransrate 10
par Aloha.host[72] packet_size 1B
attr unit B
par Aloha.host[72] x 195.352m
attr unit m
par Aloha.host[72] y 11.1429m
attr unit m
par Aloha.host[72] txrate 10000Bps
attr unit Bps
par Aloha.host[73] typename "\"Host\""
par Aloha.host[73] arrrate 10
par Aloha.host[73] retransrate 10
par Aloha.host[73] packet_size 1B
attr unit B
par Aloha.host[73] x 120.969m
attr unit m
par Aloha.host[73] y 90.2318m
attr unit m
par Aloha.host[73] txrate 10000Bps
attr unit Bps
par Aloha.host[74] typename "\"Host\""
par Aloha.host[74] arrrate 10
par Aloha.host[74] retransrate 10
par Aloha.host[74] packet_size 1B
attr unit B
par Aloha.host[74] x 147.853m
attr unit m
par Aloha.host[74] y 3.99753m
attr unit m
par Aloha.host[74] txrate 10000Bps
attr unit Bps
par Aloha.host[75] typename "\"Host\""
par Aloha.host[75] arrrate 10
par Aloha.host[75] retransrate 10
par Aloha.host[75] packet_size 1B
attr unit B
par Aloha.host[75] x 7.83756m
attr unit m
par Aloha.host[75] y 88.3422m
attr unit m
par Aloha.host[75] txrate 10000Bps
attr unit Bps
par Aloha.host[76] typename "\"Host\""
par Aloha.host[76] arrrate 10
par Aloha.host[76] retransrate 10
par Aloha.host[76] packet_size 1B
attr unit B
par Aloha.host[76] x 56.5614m
attr unit m
par Aloha.host[76] y 195.917m
attr unit m
par Aloha.host[76] txrate 10000Bps
attr unit Bps
par Aloha.host[77] typename "\"Host\""
par Aloha.host[77] arrrate 10
par Aloha.host[77] retransrate 10
par Aloha.host[77] packet_size 1B
attr unit B
par Aloha.host[77] x 24.0393m
attr unit m
par Aloha.host[77] y 71.8889m
attr unit m
par Aloha.host[77] txrate 10000Bps
attr unit Bps
par Aloha.host[78] typename "\"Host\""
par Aloha.host[78] arrrate 10
par Aloha.host[78] retransrate 10
par Aloha.host[78] packet_size 1B
attr unit B
par Aloha.host[78] x 59.228m
attr unit m
par Aloha.host[78] y 96.1787m
attr unit m
par Aloha.host[78] txrate 10000Bps
attr unit Bps
par Aloha.host[79] typename "\"Host\""
par Aloha.host[79] arrrate 10
par Aloha.host[79] retransrate 10
par Aloha.host[79] packet_size 1B
attr unit B
par Aloha.host[79] x 23.7455m
attr unit m
par Aloha.host[79] y 137.732m
attr unit m
par Aloha.host[79] txrate 10000Bps
attr unit Bps
par Aloha.host[80] typename "\"Host\""
par Aloha.host[80] arrrate 10
par Aloha.host[80] retransrate 10
par Aloha.host[80] packet_size 1B
attr unit B
par Aloha.host[80] x 63.5966m
attr unit m
par Aloha.host[80] y 176.095m
attr unit m
par Aloha.host[80] txrate 10000Bps
attr unit Bps
par Aloha.host[81] typename "\"Host\""
par Aloha.host[81] arrrate 10
par Aloha.host[81] retransrate 10
par Aloha.host[81] packet_size 1B
attr unit B
par Aloha.host[81] x 82.8526m
attr unit m
par Aloha.host[81] y 183.647m
attr unit m
par Aloha.host[81] txrate 10000Bps
attr unit Bps
par Aloha.host[82] typename "\"Host\""
par Aloha.host[82] arrrate 10
par Aloha.host[82] retransrate 10
par Aloha.host[82] packet_size 1B
attr unit B
par Aloha.host[82] x 12.8295m
attr unit m
par Aloha.host[82] y 43.3644m
attr unit m
par Aloha.host[82] txrate 10000Bps
attr unit Bps
par Aloha.host[83] typename "\"Host\""
par Aloha.host[83] arrrate 10
par Aloha.host[83] retransrate 10
par Aloha.host[83] packet_size 1B
attr unit B
par Aloha.host[83] x 138.494m
attr unit m
par Aloha.host[83] y 113.038m
attr unit m
par Aloha.host[83] txrate 10000Bps
attr unit Bps
par Aloha.host[84] typename "\"Host\""
par Aloha.host[84] arrrate 10
par Aloha.host[84] retransrate 10
par Aloha.host[84] packet_size 1B
attr unit B
par Aloha.host[84] x 113.32m
attr unit m
par Aloha.host[84] y 173.021m
attr unit m
par Aloha.host[84] txrate 10000Bps
attr unit Bps
par Aloha.host[85] typename "\"Host\""
par Aloha.host[85] arrrate 10
par Aloha.host[85] retransrate 10
par Aloha.host[85] packet_size 1B
attr unit B
par Aloha.host[85] x 53.0779m
attr unit m
par Aloha.host[85] y 101.794m
attr unit m
par Aloha.host[85] txrate 10000Bps
attr unit Bps
par Aloha.host[86] typename "\"Host\""
par Aloha.host[86] arrrate 10
par Aloha.host[86] retransrate 10
par Aloha.host[86] packet_size 1B
attr unit B
par Aloha.host[86] x 104.65m
attr unit m
par Aloha.host[86] y 183.345m
attr unit m
par Aloha.host[86] txrate 10000Bps
attr unit Bps
par Aloha.host[87] typename "\"Host\""
par Aloha.host[87] arrrate 10
par Aloha.host[87] retransrate 10
par Aloha.host[87] packet_size 1B
attr unit B
par Aloha.host[87] x 18.7881m
attr unit m
par Aloha.host[87] y 184.232m
attr unit m
par Aloha.host[87] txrate 10000Bps
attr unit Bps
par Aloha.host[88] typename "\"Host\""
par Aloha.host[88] arrrate 10
par Aloha.host[88] retransrate 10
par Aloha.host[88] packet_size 1B
attr unit B
par Aloha.host[88] x 115.189m
attr unit m
par Aloha.host[88] y 16.6225m
attr unit m
par Aloha.host[88] txrate 10000Bps
attr unit Bps
par Aloha.host[89] typename "\"Host\""
par Aloha.host[89] arrrate 10
par Aloha.host[89] retransrate 10
par Aloha.host[89] packet_size 1B
attr unit B
par Aloha.host[89] x 185.859m
attr unit m
par Aloha.host[89] y 55.5437m
attr unit m
par Aloha.host[89] txrate 10000Bps
attr unit Bps
par Aloha.host[90] typename "\"Host\""
par Aloha.host[90] arrrate 10
par Aloha.host[90] retransrate 10
par Aloha.host[90] packet_size 1B
attr unit B
par Aloha.host[90] x 63.7138m
attr unit m
par Aloha.host[90] y 1.87134m
attr unit m
par Aloha.host[90] txrate 10000Bps
attr unit Bps
par Aloha.host[91] typename "\"Host\""
par Aloha.host[91] arrrate 10
par Aloha.host[91] retransrate 10
par Aloha.host[91] packet_size 1B
attr unit B
par Aloha.host[91] x 133.482m
attr unit m
par Aloha.host[91] y 168.468m
attr unit m
par Aloha.host[91] txrate 10000Bps
attr unit Bps
par Aloha.host[92] typename "\"Host\""
par Aloha.host[92] arrrate 10
par Aloha.host[92] retransrate 10
par Aloha.host[92] packet_size 1B
attr unit B
par Aloha.host[92] x 26.3596m
attr unit m
par Aloha.host[92] y 129.435m
attr unit m
par Aloha.host[92] txrate 10000Bps
attr unit Bps
par Aloha.host[93] typename "\"Host\""
par Aloha.host[93] arrrate 10
par Aloha.host[93] retransrate 10
par Aloha.host[93] packet_size 1B
attr unit B
par Aloha.host[93] x 143.265m
attr unit m
par Aloha.host[93] y 168.277m
attr unit m
par Aloha.host[93] txrate 10000Bps
attr unit Bps
par Aloha.host[94] typename "\"Host\""
par Aloha.host[94] arrrate 10
par Aloha.host[94] retransrate 10
par Aloha.host[94] packet_size 1B
attr unit B
par Aloha.host[94] x 57.8812m
attr unit m
par Aloha.host[94] y 52.946m
attr unit m
par Aloha.host[94] txrate 10000Bps
attr unit Bps
par Aloha.host[95] typename "\"Host\""
par Aloha.host[95] arrrate 10
par Aloha.host[95] retransrate 10
par Aloha.host[95] packet_size 1B
attr unit B
par Aloha.host[95] x 36.6383m
attr unit m
par Aloha.host[95] y 79.5642m
attr unit m
par Aloha.host[95] txrate 10000Bps
attr unit Bps
par Aloha.host[96] typename "\"Host\""
par Aloha.host[96] arrrate 10
par Aloha.host[96] retransrate 10
par Aloha.host[96] packet_size 1B
attr unit B
par Aloha.host[96] x 117.303m
attr unit m
par Aloha.host[96] y 110.564m
attr unit m
par Aloha.host[96] txrate 10000Bps
attr unit Bps
par Aloha.host[97] typename "\"Host\""
par Aloha.host[97] arrrate 10
par Aloha.host[97] retransrate 10
par Aloha.host[97] packet_size 1B
attr unit B
par Aloha.host[97] x 4.02151m
attr unit m
par Aloha.host[97] y 32.9881m
attr unit m
par Aloha.host[97] txrate 10000Bps
attr unit Bps
par Aloha.host[98] typename "\"Host\""
par Aloha.host[98] arrrate 10
par Aloha.host[98] retransrate 10
par Aloha.host[98] packet_size 1B
attr unit B
par Aloha.host[98] x 165.788m
attr unit m
par Aloha.host[98] y 73.9616m
attr unit m
par Aloha.host[98] txrate 10000Bps
attr unit Bps
par Aloha.host[99] typename "\"Host\""
par Aloha.host[99] arrrate 10
par Aloha.host[99] retransrate 10
par Aloha.host[99] packet_size 1B
attr unit B
par Aloha.host[99] x 0.939096m
attr unit m
par Aloha.host[99] y 29.2884m
attr unit m
par Aloha.host[99] txrate 10000Bps
attr unit Bps
par Aloha.host[100] typename "\"Host\""
par Aloha.host[100] arrrate 10
par Aloha.host[100] retransrate 10
par Aloha.host[100] packet_size 1B
attr unit B
par Aloha.host[100] x 135.563m
attr unit m
par Aloha.host[100] y 113.924m
attr unit m
par Aloha.host[100] txrate 10000Bps
attr unit Bps
par Aloha.host[101] typename "\"Host\""
par Aloha.host[101] arrrate 10
par Aloha.host[101] retransrate 10
par Aloha.host[101] packet_size 1B
attr unit B
par Aloha.host[101] x 54.0016m
attr unit m
par Aloha.host[101] y 140.747m
attr unit m
par Aloha.host[101] txrate 10000Bps
attr unit Bps
par Aloha.host[102] typename "\"Host\""
par Aloha.host[102] arrrate 10
par Aloha.host[102] retransrate 10
par Aloha.host[102] packet_size 1B
attr unit B
par Aloha.host[102] x 147.039m
attr unit m
par Aloha.host[102] y 57.6953m
attr unit m
par Aloha.host[102] txrate 10000Bps
attr unit Bps
par Aloha.host[103] typename "\"Host\""
par Aloha.host[103] arrrate 10
par Aloha.host[103] retransrate 10
par Aloha.host[103] packet_size 1B
attr unit B
par Aloha.host[103] x 192.438m
attr unit m
par Aloha.host[103] y 86.6576m
attr unit m
par Aloha.host[103] txrate 10000Bps
attr unit Bps
par Aloha.host[104] typename "\"Host\""
par Aloha.host[104] arrrate 10
par Aloha.host[104] retransrate 10
par Aloha.host[104] packet_size 1B
attr unit B
par Aloha.host[104] x 49.7506m
attr unit m
par Aloha.host[104] y 151.221m
attr unit m
par Aloha.host[104] txrate 10000Bps
attr unit Bps
par Aloha.host[105] typename "\"Host\""
par Aloha.host[105] arrrate 10
par Aloha.host[105] retransrate 10
par Aloha.host[105] packet_size 1B
attr unit B
par Aloha.host[105] x 115.231m
attr unit m
par Aloha.host[105] y 79.2197m
attr unit m
par Aloha.host[105] txrate 10000Bps
attr unit Bps
par Aloha.host[106] typename "\"Host\""
par Aloha.host[106] arrrate 10
par Aloha.host[106] retransrate 10
par Aloha.host[106] packet_size 1B
attr unit B
par Aloha.host[106] x 118.408m
attr unit m
par Aloha.host[106] y 179.208m
attr unit m
par Aloha.host[106] txrate 10000Bps
attr unit Bps
par Aloha.host[107] typename "\"Host\""
par Aloha.host[107] arrrate 10
par Aloha.host[107] retransrate 10
par Aloha.host[107] packet_size 1B
attr unit B
par Aloha.host[107] x 114.45m
attr unit m
par Aloha.host[107] y 127.784m
attr unit m
par Aloha.host[107] txrate 10000Bps
attr unit Bps
par Aloha.host[108] typename "\"Host\""
par Aloha.host[108] arrrate 10
par Aloha.host[108] retransrate 10
par Aloha.host[108] packet_size 1B
attr unit B
par Aloha.host[108] x 44.6163m
attr unit m
par Aloha.host[108] y 178.311m
attr unit m
par Aloha.host[108] txrate 10000Bps
attr unit Bps
par Aloha.host[109] typename "\"Host\""
par Aloha.host[109] arrrate 10
par Aloha.host[109] retransrate 10
par Aloha.host[109] packet_size 1B
attr unit B
par Aloha.host[109] x 190.55m
attr unit m
par Aloha.host[109] y 136.011m
attr unit m
par Aloha.host[109] txrate 10000Bps
attr unit Bps
par Aloha.host[110] typename "\"Host\""
par Aloha.host[110] arrrate 10
par Aloha.host[110] retransrate 10
par Aloha.host[110] packet_size 1B
attr unit B
par Aloha.host[110] x 89.4251m
attr unit m
par Aloha.host[110] y 89.8395m
attr unit m
par Aloha.host[110] txrate 10000Bps
attr unit Bps
par Aloha.host[111] typename "\"Host\""
par Aloha.host[111] arrrate 10
par Aloha.host[111] retransrate 10
par Aloha.host[111] packet_size 1B
attr unit B
par Aloha.host[111] x 169.282m
attr unit m
par Aloha.host[111] y 195.714m
attr unit m
par Aloha.host[111] txrate 10000Bps
attr unit Bps
par Aloha.host[112] typename "\"Host\""
par Aloha.host[112] arrrate 10
par Aloha.host[112] retransrate 10
par Aloha.host[112] packet_size 1B
attr unit B
par Aloha.host[112] x 139.896m
attr unit m
par Aloha.host[112] y 23.2404m
attr unit m
par Aloha.host[112] txrate 10000Bps
attr unit Bps
par Aloha.host[113] typename "\"Host\""
par Aloha.host[113] arrrate 10
par Aloha.host[113] retransrate 10
par Aloha.host[113] packet_size 1B
attr unit B
par Aloha.host[113] x 59.4874m
attr unit m
par Aloha.host[113] y 153.405m
attr unit m
par Aloha.host[113] txrate 10000Bps
attr unit Bps
par Aloha.host[114] typename "\"Host\""
par Aloha.host[114] arrrate 10
par Aloha.host[114] retransrate 10
par Aloha.host[114] packet_size 1B
attr unit B
par Aloha.host[114] x 162.76m
attr unit m
par Aloha.host[114] y 82.364m
attr unit m
par Aloha.host[114] txrate 10000Bps
attr unit Bps
par Aloha.host[115] typename "\"Host\""
par Aloha.host[115] arrrate 10
par Aloha.host[115] retransrate 10
par Aloha.host[115] packet_size 1B
attr unit B
par Aloha.host[115] x 79.3011m
attr unit m
par Aloha.host[115] y 135.088m
attr unit m
par Aloha.host[115] txrate 10000Bps
attr unit Bps
par Aloha.host[116] typename "\"Host\""
par Aloha.host[116] arrrate 10
par Aloha.host[116] retransrate 10
par Aloha.host[116] packet_size 1B
attr unit B
par Aloha.host[116] x 176.221m
attr unit m
par Aloha.host[116] y 49.9593m
attr unit m
par Aloha.host[116] txrate 10000Bps
attr unit Bps
par Aloha.host[117] typename "\"Host\""
par Aloha.host[117] arrrate 10
par Aloha.host[117] retransrate 10
par Aloha.host[117] packet_size 1B
attr unit B
par Aloha.host[117] x 116.255m
attr unit m
par Aloha.host[117] y 62.6437m
attr unit m
par Aloha.host[117] txrate 10000Bps
attr unit Bps
par Aloha.host[118] typename "\"Host\""
par Aloha.host[118] arrrate 10
par Aloha.host[118] retransrate 10
par Aloha.host[118] packet_size 1B
attr unit B
par Aloha.host[118] x 176.347m
attr unit m
par Aloha.host[118] y 193.083m
attr unit m
par Aloha.host[118] txrate 10000Bps
attr unit Bps
par Aloha.host[119] typename "\"Host\""
par Aloha.host[119] arrrate 10
par Aloha.host[119] retransrate 10
par Aloha.host[119] packet_size 1B
attr unit B
par Aloha.host[119] x 138.506m
attr unit m
par Aloha.host[119] y 117.693m
attr unit m
par Aloha.host[119] txrate 10000Bps
attr unit Bps
par Aloha.host[120] typename "\"Host\""
par Aloha.host[120] arrrate 10
par Aloha.host[120] retransrate 10
par Aloha.host[120] packet_size 1B
attr unit B
par Aloha.host[120] x 145.051m
attr unit m
par Aloha.host[120] y 131.934m
attr unit m
par Aloha.host[120] txrate 10000Bps
attr unit Bps
par Aloha.host[121] typename "\"Host\""
par Aloha.host[121] arrrate 10
par Aloha.host[121] retransrate 10
par Aloha.host[121] packet_size 1B
attr unit B
par Aloha.host[121] x 100.265m
attr unit m
par Aloha.host[121] y 106.641m
attr unit m
par Aloha.host[121] txrate 10000Bps
attr unit Bps
par Aloha.host[122] typename "\"Host\""
par Aloha.host[122] arrrate 10
par Aloha.host[122] retransrate 10
par Aloha.host[122] packet_size 1B
attr unit B
par Aloha.host[122] x 191.217m
attr unit m
par Aloha.host[122] y 46.1066m
attr unit m
par Aloha.host[122] txrate 10000Bps
attr unit Bps
par Aloha.host[123] typename "\"Host\""
par Aloha.host[123] arrrate 10
par Aloha.host[123] retransrate 10
par Aloha.host[123] packet_size 1B
attr unit B
par Aloha.host[123] x 128.798m
attr unit m
par Aloha.host[123] y 78.9739m
attr unit m
par Aloha.host[123] txrate 10000Bps
attr unit Bps
par Aloha.host[124] typename "\"Host\""
par Aloha.host[124] arrrate 10
par Aloha.host[124] retransrate 10
par Aloha.host[124] packet_size 1B
attr unit B
par Aloha.host[124] x 84.771m
attr unit m
par Aloha.host[124] y 123.762m
attr unit m
par Aloha.host[124] txrate 10000Bps
attr unit Bps
par Aloha.host[125] typename "\"Host\""
par Aloha.host[125] arrrate 10
par Aloha.host[125] retransrate 10
par Aloha.host[125] packet_size 1B
attr unit B
par Aloha.host[125] x 121.279m
attr unit m
par Aloha.host[125] y 94.9735m
attr unit m
par Aloha.host[125] txrate 10000Bps
attr unit Bps
par Aloha.host[126] typename "\"Host\""
par Aloha.host[126] arrrate 10
par Aloha.host[126] retransrate 10
par Aloha.host[126] packet_size 1B
attr unit B
par Aloha.host[126] x 3.83864m
attr unit m
par Aloha.host[126] y 94.0264m
attr unit m
par Aloha.host[126] txrate 10000Bps
attr unit Bps
par Aloha.host[127] typename "\"Host\""
par Aloha.host[127] arrrate 10
par Aloha.host[127] retransrate 10
par Aloha.host[127] packet_size 1B
attr unit B
par Aloha.host[127] x 60.315m
attr unit m
par Aloha.host[127] y 143.215m
attr unit m
par Aloha.host[127] txrate 10000Bps
attr unit Bps
par Aloha.host[128] typename "\"Host\""
par Aloha.host[128] arrrate 10
par Aloha.host[128] retransrate 10
par Aloha.host[128] packet_size 1B
attr unit B
par Aloha.host[128] x 132.035m
attr unit m
par Aloha.host[128] y 57.5982m
attr unit m
par Aloha.host[128] txrate 10000Bps
attr unit Bps
par Aloha.host[129] typename "\"Host\""
par Aloha.host[129] arrrate 10
par Aloha.host[129] retransrate 10
par Aloha.host[129] packet_size 1B
attr unit B
par Aloha.host[129] x 58.0155m
attr unit m
par Aloha.host[129] y 76.6924m
attr unit m
par Aloha.host[129] txrate 10000Bps
attr unit Bps
par Aloha.host[130] typename "\"Host\""
par Aloha.host[130] arrrate 10
par Aloha.host[130] retransrate 10
par Aloha.host[130] packet_size 1B
attr unit B
par Aloha.host[130] x 123.603m
attr unit m
par Aloha.host[130] y 149.834m
attr unit m
par Aloha.host[130] txrate 10000Bps
attr unit Bps
par Aloha.host[131] typename "\"Host\""
par Aloha.host[131] arrrate 10
par Aloha.host[131] retransrate 10
par Aloha.host[131] packet_size 1B
attr unit B
par Aloha.host[131] x 85.7537m
attr unit m
par Aloha.host[131] y 175.69m
attr unit m
par Aloha.host[131] txrate 10000Bps
attr unit Bps
par Aloha.host[132] typename "\"Host\""
par Aloha.host[132] arrrate 10
par Aloha.host[132] retransrate 10
par Aloha.host[132] packet_size 1B
attr unit B
par Aloha.host[132] x 27.0948m
attr unit m
par Aloha.host[132] y 20.5727m
attr unit m
par Aloha.host[132] txrate 10000Bps
attr unit Bps
par Aloha.host[133] typename "\"Host\""
par Aloha.host[133] arrrate 10
par Aloha.host[133] retransrate 10
par Aloha.host[133] packet_size 1B
attr unit B
par Aloha.host[133] x 59.6565m
attr unit m
par Aloha.host[133] y 18.4748m
attr unit m
par Aloha.host[133] txrate 10000Bps
attr unit Bps
par Aloha.host[134] typename "\"Host\""
par Aloha.host[134] arrrate 10
par Aloha.host[134] retransrate 10
par Aloha.host[134] packet_size 1B
attr unit B
par Aloha.host[134] x 113.993m
attr unit m
par Aloha.host[134] y 70.8093m
attr unit m
par Aloha.host[134] txrate 10000Bps
attr unit Bps
par Aloha.host[135] typename "\"Host\""
par Aloha.host[135] arrrate 10
par Aloha.host[135] retransrate 10
par Aloha.host[135] packet_size 1B
attr unit B
par Aloha.host[135] x 118.175m
attr unit m
par Aloha.host[135] y 110.363m
attr unit m
par Aloha.host[135] txrate 10000Bps
attr unit Bps
par Aloha.host[136] typename "\"Host\""
par Aloha.host[136] arrrate 10
par Aloha.host[136] retransrate 10
par Aloha.host[136] packet_size 1B
attr unit B
par Aloha.host[136] x 114.865m
attr unit m
par Aloha.host[136] y 6.72502m
attr unit m
par Aloha.host[136] txrate 10000Bps
attr unit Bps
par Aloha.host[137] typename "\"Host\""
par Aloha.host[137] arrrate 10
par Aloha.host[137] retransrate 10
par Aloha.host[137] packet_size 1B
attr unit B
par Aloha.host[137] x 130.64m
attr unit m
par Aloha.host[137] y 193.792m
attr unit m
par Aloha.host[137] txrate 10000Bps
attr unit Bps
par Aloha.host[138] typename "\"Host\""
par Aloha.host[138] arrrate 10
par Aloha.host[138] retransrate 10
par Aloha.host[138] packet_size 1B
attr unit B
par Aloha.host[138] x 130.421m
attr unit m
par Aloha.host[138] y 64.1994m
attr unit m
par Aloha.host[138] txrate 10000Bps
attr unit Bps
par Aloha.host[139] typename "\"Host\""
par Aloha.host[139] arrrate 10
par Aloha.host[139] retransrate 10
par Aloha.host[139] packet_size 1B
attr unit B
par Aloha.host[139] x 86.2837m
attr unit m
par Aloha.host[139] y 44.2525m
attr unit m
par Aloha.host[139] txrate 10000Bps
attr unit Bps
par Aloha.host[140] typename "\"Host\""
par Aloha.host[140] arrrate 10
par Aloha.host[140] retransrate 10
par Aloha.host[140] packet_size 1B
attr unit B
par Aloha.host[140] x 179.309m
attr unit m
par Aloha.host[140] y 28.2528m
attr unit m
par Aloha.host[140] txrate 10000Bps
attr unit Bps
par Aloha.host[141] typename "\"Host\""
par Aloha.host[141] arrrate 10
par Aloha.host[141] retransrate 10
par Aloha.host[141] packet_size 1B
attr unit B
par Aloha.host[141] x 73.5124m
attr unit m
par Aloha.host[141] y 19.452m
attr unit m
par Aloha.host[141] txrate 10000Bps
attr unit Bps
par Aloha.host[142] typename "\"Host\""
par Aloha.host[142] arrrate 10
par Aloha.host[142] retransrate 10
par Aloha.host[142] packet_size 1B
attr unit B
par Aloha.host[142] x 87.173m
attr unit m
par Aloha.host[142] y 196.808m
attr unit m
par Aloha.host[142] txrate 10000Bps
attr unit Bps
par Aloha.host[143] typename "\"Host\""
par Aloha.host[143] arrrate 10
par Aloha.host[143] retransrate 10
par Aloha.host[143] packet_size 1B
attr unit B
par Aloha.host[143] x 178.385m
attr unit m
par Aloha.host[143] y 52.0682m
attr unit m
par Aloha.host[143] txrate 10000Bps
attr unit Bps
par Aloha.host[144] typename "\"Host\""
par Aloha.host[144] arrrate 10
par Aloha.host[144] retransrate 10
par Aloha.host[144] packet_size 1B
attr unit B
par Aloha.host[144] x 161.239m
attr unit m
par Aloha.host[144] y 107.405m
attr unit m
par Aloha.host[144] txrate 10000Bps
attr unit Bps
par Aloha.host[145] typename "\"Host\""
par Aloha.host[145] arrrate 10
par Aloha.host[145] retransrate 10
par Aloha.host[145] packet_size 1B
attr unit B
par Aloha.host[145] x 140.778m
attr unit m
par Aloha.host[145] y 89.5852m
attr unit m
par Aloha.host[145] txrate 10000Bps
attr unit Bps
par Aloha.host[146] typename "\"Host\""
par Aloha.host[146] arrrate 10
par Aloha.host[146] retransrate 10
par Aloha.host[146] packet_size 1B
attr unit B
par Aloha.host[146] x 20.0454m
attr unit m
par Aloha.host[146] y 19.9138m
attr unit m
par Aloha.host[146] txrate 10000Bps
attr unit Bps
par Aloha.host[147] typename "\"Host\""
par Aloha.host[147] arrrate 10
par Aloha.host[147] retransrate 10
par Aloha.host[147] packet_size 1B
attr unit B
par Aloha.host[147] x 183.897m
attr unit m
par Aloha.host[147] y 70.4623m
attr unit m
par Aloha.host[147] txrate 10000Bps
attr unit Bps
par Aloha.host[148] typename "\"Host\""
par Aloha.host[148] arrrate 10
par Aloha.host[148] retransrate 10
par Aloha.host[148] packet_size 1B
attr unit B
par Aloha.host[148] x 142.848m
attr unit m
par Aloha.host[148] y 93.8498m
attr unit m
par Aloha.host[148] txrate 10000Bps
attr unit Bps
par Aloha.host[149] typename "\"Host\""
par Aloha.host[149] arrrate 10
par Aloha.host[149] retransrate 10
par Aloha.host[149] packet_size 1B
attr unit B
par Aloha.host[149] x 199.769m
attr unit m
par Aloha.host[149] y 168.228m
attr unit m
par Aloha.host[149] txrate 10000Bps
attr unit Bps
par Aloha.host[150] typename "\"Host\""
par Aloha.host[150] arrrate 10
par Aloha.host[150] retransrate 10
par Aloha.host[150] packet_size 1B
attr unit B
par Aloha.host[150] x 29.8897m
attr unit m
par Aloha.host[150] y 180.93m
attr unit m
par Aloha.host[150] txrate 10000Bps
attr unit Bps
par Aloha.host[151] typename "\"Host\""
par Aloha.host[151] arrrate 10
par Aloha.host[151] retransrate 10
par Aloha.host[151] packet_size 1B
attr unit B
par Aloha.host[151] x 173.625m
attr unit m
par Aloha.host[151] y 7.51188m
attr unit m
par Aloha.host[151] txrate 10000Bps
attr unit Bps
par Aloha.host[152] typename "\"Host\""
par Aloha.host[152] arrrate 10
par Aloha.host[152] retransrate 10
par Aloha.host[152] packet_size 1B
attr unit B
par Aloha.host[152] x 32.4986m
attr unit m
par Aloha.host[152] y 101.663m
attr unit m
par Aloha.host[152] txrate 10000Bps
attr unit Bps
par Aloha.host[153] typename "\"Host\""
par Aloha.host[153] arrrate 10
par Aloha.host[153] retransrate 10
par Aloha.host[153] packet_size 1B
attr unit B
par Aloha.host[153] x 123.112m
attr unit m
par Aloha.host[153] y 33.3695m
attr unit m
par Aloha.host[153] txrate 10000Bps
attr unit Bps
par Aloha.host[154] typename "\"Host\""
par Aloha.host[154] arrrate 10
par Aloha.host[154] retransrate 10
par Aloha.host[154] packet_size 1B
attr unit B
par Aloha.host[154] x 24.764m
attr unit m
par Aloha.host[154] y 155.81m
attr unit m
par Aloha.host[154] txrate 10000Bps
attr unit Bps
par Aloha.host[155] typename "\"Host\""
par Aloha.host[155] arrrate 10
par Aloha.host[155] retransrate 10
par Aloha.host[155] packet_size 1B
attr unit B
par Aloha.host[155] x 169.602m
attr unit m
par Aloha.host[155] y 172.987m
attr unit m
par Aloha.host[155] txrate 10000Bps
attr unit Bps
par Aloha.host[156] typename "\"Host\""
par Aloha.host[156] arrrate 10
par Aloha.host[156] retransrate 10
par Aloha.host[156] packet_size 1B
attr unit B
par Aloha.host[156] x 161.464m
attr unit m
par Aloha.host[156] y 82.2793m
attr unit m
par Aloha.host[156] txrate 10000Bps
attr unit Bps
par Aloha.host[157] typename "\"Host\""
par Aloha.host[157] arrrate 10
par Aloha.host[157] retransrate 10
par Aloha.host[157] packet_size 1B
attr unit B
par Aloha.host[157] x 113.82m
attr unit m
par Aloha.host[157] y 27.9945m
attr unit m
par Aloha.host[157] txrate 10000Bps
attr unit Bps
par Aloha.host[158] typename "\"Host\""
par Aloha.host[158] arrrate 10
par Aloha.host[158] retransrate 10
par Aloha.host[158] packet_size 1B
attr unit B
par Aloha.host[158] x 81.4367m
attr unit m
par Aloha.host[158] y 6.64448m
attr unit m
par Aloha.host[158] txrate 10000Bps
attr unit Bps
par Aloha.host[159] typename "\"Host\""
par Aloha.host[159] arrrate 10
par Aloha.host[159] retransrate 10
par Aloha.host[159] packet_size 1B
attr unit B
par Aloha.host[159] x 13.8334m
attr unit m
par Aloha.host[159] y 196.515m
attr unit m
par Aloha.host[159] txrate 10000Bps
attr unit Bps
par Aloha.host[160] typename "\"Host\""
par Aloha.host[160] arrrate 10
par Aloha.host[160] retransrate 10
par Aloha.host[160] packet_size 1B
attr unit B
par Aloha.host[160] x 139.486m
attr unit m
par Aloha.host[160] y 74.6582m
attr unit m
par Aloha.host[160] txrate 10000Bps
attr unit Bps
par Aloha.host[161] typename "\"Host\""
par Aloha.host[161] arrrate 10
par Aloha.host[161] retransrate 10
par Aloha.host[161] packet_size 1B
attr unit B
par Aloha.host[161] x 90.7085m
attr unit m
par Aloha.host[161] y 84.0151m
attr unit m
par Aloha.host[161] txrate 10000Bps
attr unit Bps
par Aloha.host[162] typename "\"Host\""
par Aloha.host[162] arrrate 10
par Aloha.host[162] retransrate 10
par Aloha.host[162] packet_size 1B
attr unit B
par Aloha.host[162] x 144.411m
attr unit m
par Aloha.host[162] y 10.1176m
attr unit m
par Aloha.host[162] txrate 10000Bps
attr unit Bps
par Aloha.host[163] typename "\"Host\""
par Aloha.host[163] arrrate 10
par Aloha.host[163] retransrate 10
par Aloha.host[163] packet_size 1B
attr unit B
par Aloha.host[163] x 173.276m
attr unit m
par Aloha.host[163] y 73.0992m
attr unit m
par Aloha.host[163] txrate 10000Bps
attr unit Bps
par Aloha.host[164] typename "\"Host\""
par Aloha.host[164] arrrate 10
par Aloha.host[164] retransrate 10
par Aloha.host[164] packet_size 1B
attr unit B
par Aloha.host[164] x 195.104m
attr unit m
par Aloha.host[164] y 3.32559m
attr unit m
par Aloha.host[164] txrate 10000Bps
attr unit Bps
par Aloha.host[165] typename "\"Host\""
par Aloha.host[165] arrrate 10
par Aloha.host[165] retransrate 10
par Aloha.host[165] packet_size 1B
attr unit B
par Aloha.host[165] x 171.161m
attr unit m
par Aloha.host[165] y 46.1485m
attr unit m
par Aloha.host[165] txrate 10000Bps
attr unit Bps
par Aloha.host[166] typename "\"Host\""
par Aloha.host[166] arrrate 10
par Aloha.host[166] retransrate 10
par Aloha.host[166] packet_size 1B
attr unit B
par Aloha.host[166] x 2.34282m
attr unit m
par Aloha.host[166] y 152.982m
attr unit m
par Aloha.host[166] txrate 10000Bps
attr unit Bps
par Aloha.host[167] typename "\"Host\""
par Aloha.host[167] arrrate 10
par Aloha.host[167] retransrate 10
par Aloha.host[167] packet_size 1B
attr unit B
par Aloha.host[167] x 71.9956m
attr unit m
par Aloha.host[167] y 188.825m
attr unit m
par Aloha.host[167] txrate 10000Bps
attr unit Bps
par Aloha.host[168] typename "\"Host\""
par Aloha.host[168] arrrate 10
par Aloha.host[168] retransrate 10
par Aloha.host[168] packet_size 1B
attr unit B
par Aloha.host[168] x 145.998m
attr unit m
par Aloha.host[168] y 150m
attr unit m
par Aloha.host[168] txrate 10000Bps
attr unit Bps
par Aloha.host[169] typename "\"Host\""
par Aloha.host[169] arrrate 10
par Aloha.host[169] retransrate 10
par Aloha.host[169] packet_size 1B
attr unit B
par Aloha.host[169] x 34.3259m
attr unit m
par Aloha.host[169] y 67.8808m
attr unit m
par Aloha.host[169] txrate 10000Bps
attr unit Bps
par Aloha.host[170] typename "\"Host\""
par Aloha.host[170] arrrate 10
par Aloha.host[170] retransrate 10
par Aloha.host[170] packet_size 1B
attr unit B
par Aloha.host[170] x 104.207m
attr unit m
par Aloha.host[170] y 97.9098m
attr unit m
par Aloha.host[170] txrate 10000Bps
attr unit Bps
par Aloha.host[171] typename "\"Host\""
par Aloha.host[171] arrrate 10
par Aloha.host[171] retransrate 10
par Aloha.host[171] packet_size 1B
attr unit B
par Aloha.host[171] x 10.8676m
attr unit m
par Aloha.host[171] y 67.797m
attr unit m
par Aloha.host[171] txrate 10000Bps
attr unit Bps
par Aloha.host[172] typename "\"Host\""
par Aloha.host[172] arrrate 10
par Aloha.host[172] retransrate 10
par Aloha.host[172] packet_size 1B
attr unit B
par Aloha.host[172] x 39.9993m
attr unit m
par Aloha.host[172] y 35.8981m
attr unit m
par Aloha.host[172] txrate 10000Bps
attr unit Bps
par Aloha.host[173] typename "\"Host\""
par Aloha.host[173] arrrate 10
par Aloha.host[173] retransrate 10
par Aloha.host[173] packet_size 1B
attr unit B
par Aloha.host[173] x 3.70436m
attr unit m
par Aloha.host[173] y 34.1973m
attr unit m
par Aloha.host[173] txrate 10000Bps
attr unit Bps
par Aloha.host[174] typename "\"Host\""
par Aloha.host[174] arrrate 10
par Aloha.host[174] retransrate 10
par Aloha.host[174] packet_size 1B
attr unit B
par Aloha.host[174] x 158.74m
attr unit m
par Aloha.host[174] y 92.6902m
attr unit m
par Aloha.host[174] txrate 10000Bps
attr unit Bps
par Aloha.host[175] typename "\"Host\""
par Aloha.host[175] arrrate 10
par Aloha.host[175] retransrate 10
par Aloha.host[175] packet_size 1B
attr unit B
par Aloha.host[175] x 44.7849m
attr unit m
par Aloha.host[175] y 174.915m
attr unit m
par Aloha.host[175] txrate 10000Bps
attr unit Bps
par Aloha.host[176] typename "\"Host\""
par Aloha.host[176] arrrate 10
par Aloha.host[176] retransrate 10
par Aloha.host[176] packet_size 1B
attr unit B
par Aloha.host[176] x 69.0703m
attr unit m
par Aloha.host[176] y 188.824m
attr unit m
par Aloha.host[176] txrate 10000Bps
attr unit Bps
par Aloha.host[177] typename "\"Host\""
par Aloha.host[177] arrrate 10
par Aloha.host[177] retransrate 10
par Aloha.host[177] packet_size 1B
attr unit B
par Aloha.host[177] x 185.616m
attr unit m
par Aloha.host[177] y 121.651m
attr unit m
par Aloha.host[177] txrate 10000Bps
attr unit Bps
par Aloha.host[178] typename "\"Host\""
par Aloha.host[178] arrrate 10
par Aloha.host[178] retransrate 10
par Aloha.host[178] packet_size 1B
attr unit B
par Aloha.host[178] x 140.883m
attr unit m
par Aloha.host[178] y 119.331m
attr unit m
par Aloha.host[178] txrate 10000Bps
attr unit Bps
par Aloha.host[179] typename "\"Host\""
par Aloha.host[179] arrrate 10
par Aloha.host[179] retransrate 10
par Aloha.host[179] packet_size 1B
attr unit B
par Aloha.host[179] x 6.36778m
attr unit m
par Aloha.host[179] y 156.729m
attr unit m
par Aloha.host[179] txrate 10000Bps
attr unit Bps
par Aloha.host[180] typename "\"Host\""
par Aloha.host[180] arrrate 10
par Aloha.host[180] retransrate 10
par Aloha.host[180] packet_size 1B
attr unit B
par Aloha.host[180] x 32.9388m
attr unit m
par Aloha.host[180] y 100.005m
attr unit m
par Aloha.host[180] txrate 10000Bps
attr unit Bps
par Aloha.host[181] typename "\"Host\""
par Aloha.host[181] arrrate 10
par Aloha.host[181] retransrate 10
par Aloha.host[181] packet_size 1B
attr unit B
par Aloha.host[181] x 124.296m
attr unit m
par Aloha.host[181] y 10.074m
attr unit m
par Aloha.host[181] txrate 10000Bps
attr unit Bps
par Aloha.host[182] typename "\"Host\""
par Aloha.host[182] arrrate 10
par Aloha.host[182] retransrate 10
par Aloha.host[182] packet_size 1B
attr unit B
par Aloha.host[182] x 115.446m
attr unit m
par Aloha.host[182] y 139.82m
attr unit m
par Aloha.host[182] txrate 10000Bps
attr unit Bps
par Aloha.host[183] typename "\"Host\""
par Aloha.host[183] arrrate 10
par Aloha.host[183] retransrate 10
par Aloha.host[183] packet_size 1B
attr unit B
par Aloha.host[183] x 47.5786m
attr unit m
par Aloha.host[183] y 198.479m
attr unit m
par Aloha.host[183] txrate 10000Bps
attr unit Bps
par Aloha.host[184] typename "\"Host\""
par Aloha.host[184] arrrate 10
par Aloha.host[184] retransrate 10
par Aloha.host[184] packet_size 1B
attr unit B
par Aloha.host[184] x 186.843m
attr unit m
par Aloha.host[184] y 53.4525m
attr unit m
par Aloha.host[184] txrate 10000Bps
attr unit Bps
par Aloha.host[185] typename "\"Host\""
par Aloha.host[185] arrrate 10
par Aloha.host[185] retransrate 10
par Aloha.host[185] packet_size 1B
attr unit B
par Aloha.host[185] x 122.793m
attr unit m
par Aloha.host[185] y 135.818m
attr unit m
par Aloha.host[185] txrate 10000Bps
attr unit Bps
par Aloha.host[186] typename "\"Host\""
par Aloha.host[186] arrrate 10
par Aloha.host[186] retransrate 10
par Aloha.host[186] packet_size 1B
attr unit B
par Aloha.host[186] x 107.127m
attr unit m
par Aloha.host[186] y 172.856m
attr unit m
par Aloha.host[186] txrate 10000Bps
attr unit Bps
par Aloha.host[187] typename "\"Host\""
par Aloha.host[187] arrrate 10
par Aloha.host[187] retransrate 10
par Aloha.host[187] packet_size 1B
attr unit B
par Aloha.host[187] x 117.982m
attr unit m
par Aloha.host[187] y 150.169m
attr unit m
par Aloha.host[187] txrate 10000Bps
attr unit Bps
par Aloha.host[188] typename "\"Host\""
par Aloha.host[188] arrrate 10
par Aloha.host[188] retransrate 10
par Aloha.host[188] packet_size 1B
attr unit B
par Aloha.host[188] x 146.024m
attr unit m
par Aloha.host[188] y 192.898m
attr unit m
par Aloha.host[188] txrate 10000Bps
attr unit Bps
par Aloha.host[189] typename "\"Host\""
par Aloha.host[189] arrrate 10
par Aloha.host[189] retransrate 10
par Aloha.host[189] packet_size 1B
attr unit B
par Aloha.host[189] x 62.389m
attr unit m
par Aloha.host[189] y 110.848m
attr unit m
par Aloha.host[189] txrate 10000Bps
attr unit Bps
par Aloha.host[190] typename "\"Host\""
par Aloha.host[190] arrrate 10
par Aloha.host[190] retransrate 10
par Aloha.host[190] packet_size 1B
attr unit B
par Aloha.host[190] x 79.6442m
attr unit m
par Aloha.host[190] y 42.4781m
attr unit m
par Aloha.host[190] txrate 10000Bps
attr unit Bps
par Aloha.host[191] typename "\"Host\""
par Aloha.host[191] arrrate 10
par Aloha.host[191] retransrate 10
par Aloha.host[191] packet_size 1B
attr unit B
par Aloha.host[191] x 41.9688m
attr unit m
par Aloha.host[191] y 44.4886m
attr unit m
par Aloha.host[191] txrate 10000Bps
attr unit Bps
par Aloha.host[192] typename "\"Host\""
par Aloha.host[192] arrrate 10
par Aloha.host[192] retransrate 10
par Aloha.host[192] packet_size 1B
attr unit B
par Aloha.host[192] x 37.2386m
attr unit m
par Aloha.host[192] y 43.7499m
attr unit m
par Aloha.host[192] txrate 10000Bps
attr unit Bps
par Aloha.host[193] typename "\"Host\""
par Aloha.host[193] arrrate 10
par Aloha.host[193] retransrate 10
par Aloha.host[193] packet_size 1B
attr unit B
par Aloha.host[193] x 188.874m
attr unit m
par Aloha.host[193] y 113.915m
attr unit m
par Aloha.host[193] txrate 10000Bps
attr unit Bps
par Aloha.host[194] typename "\"Host\""
par Aloha.host[194] arrrate 10
par Aloha.host[194] retransrate 10
par Aloha.host[194] packet_size 1B
attr unit B
par Aloha.host[194] x 147.91m
attr unit m
par Aloha.host[194] y 90.4218m
attr unit m
par Aloha.host[194] txrate 10000Bps
attr unit Bps
par Aloha.host[195] typename "\"Host\""
par Aloha.host[195] arrrate 10
par Aloha.host[195] retransrate 10
par Aloha.host[195] packet_size 1B
attr unit B
par Aloha.host[195] x 98.0918m
attr unit m
par Aloha.host[195] y 194.047m
attr unit m
par Aloha.host[195] txrate 10000Bps
attr unit Bps
par Aloha.host[196] typename "\"Host\""
par Aloha.host[196] arrrate 10
par Aloha.host[196] retransrate 10
par Aloha.host[196] packet_size 1B
attr unit B
par Aloha.host[196] x 45.4829m
attr unit m
par Aloha.host[196] y 136.109m
attr unit m
par Aloha.host[196] txrate 10000Bps
attr unit Bps
par Aloha.host[197] typename "\"Host\""
par Aloha.host[197] arrrate 10
par Aloha.host[197] retransrate 10
par Aloha.host[197] packet_size 1B
attr unit B
par Aloha.host[197] x 50.8713m
attr unit m
par Aloha.host[197] y 17.0591m
attr unit m
par Aloha.host[197] txrate 10000Bps
attr unit Bps
par Aloha.host[198] typename "\"Host\""
par Aloha.host[198] arrrate 10
par Aloha.host[198] retransrate 10
par Aloha.host[198] packet_size 1B
attr unit B
par Aloha.host[198] x 11.6058m
attr unit m
par Aloha.host[198] y 11.2837m
attr unit m
par Aloha.host[198] txrate 10000Bps
attr unit Bps
par Aloha.host[199] typename "\"Host\""
par Aloha.host[199] arrrate 10
par Aloha.host[199] retransrate 10
par Aloha.host[199] packet_size 1B
attr unit B
par Aloha.host[199] x 86.8833m
attr unit m
par Aloha.host[199] y 97.5675m
attr unit m
par Aloha.host[199] txrate 10000Bps
attr unit Bps
par Aloha.host[200] typename "\"Host\""
par Aloha.host[200] arrrate 10
par Aloha.host[200] retransrate 10
par Aloha.host[200] packet_size 1B
attr unit B
par Aloha.host[200] x 62.3592m
attr unit m
par Aloha.host[200] y 176.201m
attr unit m
par Aloha.host[200] txrate 10000Bps
attr unit Bps
par Aloha.host[201] typename "\"Host\""
par Aloha.host[201] arrrate 10
par Aloha.host[201] retransrate 10
par Aloha.host[201] packet_size 1B
attr unit B
par Aloha.host[201] x 139.269m
attr unit m
par Aloha.host[201] y 195.281m
attr unit m
par Aloha.host[201] txrate 10000Bps
attr unit Bps
par Aloha.host[202] typename "\"Host\""
par Aloha.host[202] arrrate 10
par Aloha.host[202] retransrate 10
par Aloha.host[202] packet_size 1B
attr unit B
par Aloha.host[202] x 75.5504m
attr unit m
par Aloha.host[202] y 123.532m
attr unit m
par Aloha.host[202] txrate 10000Bps
attr unit Bps
par Aloha.host[203] typename "\"Host\""
par Aloha.host[203] arrrate 10
par Aloha.host[203] retransrate 10
par Aloha.host[203] packet_size 1B
attr unit B
par Aloha.host[203] x 35.9207m
attr unit m
par Aloha.host[203] y 108.5m
attr unit m
par Aloha.host[203] txrate 10000Bps
attr unit Bps
par Aloha.host[204] typename "\"Host\""
par Aloha.host[204] arrrate 10
par Aloha.host[204] retransrate 10
par Aloha.host[204] packet_size 1B
attr unit B
par Aloha.host[204] x 4.93575m
attr unit m
par Aloha.host[204] y 170.923m
attr unit m
par Aloha.host[204] txrate 10000Bps
attr unit Bps
par Aloha.host[205] typename "\"Host\""
par Aloha.host[205] arrrate 10
par Aloha.host[205] retransrate 10
par Aloha.host[205] packet_size 1B
attr unit B
par Aloha.host[205] x 13.4499m
attr unit m
par Aloha.host[205] y 148.767m
attr unit m
par Aloha.host[205] txrate 10000Bps
attr unit Bps
par Aloha.host[206] typename "\"Host\""
par Aloha.host[206] arrrate 10
par Aloha.host[206] retransrate 10
par Aloha.host[206] packet_size 1B
attr unit B
par Aloha.host[206] x 135.879m
attr unit m
par Aloha.host[206] y 95.7193m
attr unit m
par Aloha.host[206] txrate 10000Bps
attr unit Bps
par Aloha.host[207] typename "\"Host\""
par Aloha.host[207] arrrate 10
par Aloha.host[207] retransrate 10
par Aloha.host[207] packet_size 1B
attr unit B
par Aloha.host[207] x 90.7394m
attr unit m
par Aloha.host[207] y 135.416m
attr unit m
par Aloha.host[207] txrate 10000Bps
attr unit Bps
par Aloha.host[208] typename "\"Host\""
par Aloha.host[208] arrrate 10
par Aloha.host[208] retransrate 10
par Aloha.host[208] packet_size 1B
attr unit B
par Aloha.host[208] x 107.316m
attr unit m
par Aloha.host[208] y 121.409m
attr unit m
par Aloha.host[208] txrate 10000Bps
attr unit Bps
par Aloha.host[209] typename "\"Host\""
par Aloha.host[209] arrrate 10
par Aloha.host[209] retransrate 10
par Aloha.host[209] packet_size 1B
attr unit B
par Aloha.host[209] x 179.334m
attr unit m
par Aloha.host[209] y 142.939m
attr unit m
par Aloha.host[209] txrate 10000Bps
attr unit Bps
par Aloha.host[210] typename "\"Host\""
par Aloha.host[210] arrrate 10
par Aloha.host[210] retransrate 10
par Aloha.host[210] packet_size 1B
attr unit B
par Aloha.host[210] x 198.068m
attr unit m
par Aloha.host[210] y 93.8994m
attr unit m
par Aloha.host[210] txrate 10000Bps
attr unit Bps
par Aloha.host[211] typename "\"Host\""
par Aloha.host[211] arrrate 10
par Aloha.host[211] retransrate 10
par Aloha.host[211] packet_size 1B
attr unit B
par Aloha.host[211] x 43.3794m
attr unit m
par Aloha.host[211] y 91.2029m
attr unit m
par Aloha.host[211] txrate 10000Bps
attr unit Bps
par Aloha.host[212] typename "\"Host\""
par Aloha.host[212] arrrate 10
par Aloha.host[212] retransrate 10
par Aloha.host[212] packet_size 1B
attr unit B
par Aloha.host[212] x 132.616m
attr unit m
par Aloha.host[212] y 181.284m
attr unit m
par Aloha.host[212] txrate 10000Bps
attr unit Bps
par Aloha.host[213] typename "\"Host\""
par Aloha.host[213] arrrate 10
par Aloha.host[213] retransrate 10
par Aloha.host[213] packet_size 1B
attr unit B
par Aloha.host[213] x 52.6645m
attr unit m
par Aloha.host[213] y 27.4441m
attr unit m
par Aloha.host[213] txrate 10000Bps
attr unit Bps
par Aloha.host[214] typename "\"Host\""
par Aloha.host[214] arrrate 10
par Aloha.host[214] retransrate 10
par Aloha.host[214] packet_size 1B
attr unit B
par Aloha.host[214] x 4.1302m
attr unit m
par Aloha.host[214] y 45.8439m
attr unit m
par Aloha.host[214] txrate 10000Bps
attr unit Bps
par Aloha.host[215] typename "\"Host\""
par Aloha.host[215] arrrate 10
par Aloha.host[215] retransrate 10
par Aloha.host[215] packet_size 1B
attr unit B
par Aloha.host[215] x 151.676m
attr unit m
par Aloha.host[215] y 176.317m
attr unit m
par Aloha.host[215] txrate 10000Bps
attr unit Bps
par Aloha.host[216] typename "\"Host\""
par Aloha.host[216] arrrate 10
par Aloha.host[216] retransrate 10
par Aloha.host[216] packet_size 1B
attr unit B
par Aloha.host[216] x 64.0034m
attr unit m
par Aloha.host[216] y 180.885m
attr unit m
par Aloha.host[216] txrate 10000Bps
attr unit Bps
par Aloha.host[217] typename "\"Host\""
par Aloha.host[217] arrrate 10
par Aloha.host[217] retransrate 10
par Aloha.host[217] packet_size 1B
attr unit B
par Aloha.host[217] x 76.6928m
attr unit m
par Aloha.host[217] y 129.157m
attr unit m
par Aloha.host[217] txrate 10000Bps
attr unit Bps
par Aloha.host[218] typename "\"Host\""
par Aloha.host[218] arrrate 10
par Aloha.host[218] retransrate 10
par Aloha.host[218] packet_size 1B
attr unit B
par Aloha.host[218] x 117.663m
attr unit m
par Aloha.host[218] y 64.9366m
attr unit m
par Aloha.host[218] txrate 10000Bps
attr unit Bps
par Aloha.host[219] typename "\"Host\""
par Aloha.host[219] arrrate 10
par Aloha.host[219] retransrate 10
par Aloha.host[219] packet_size 1B
attr unit B
par Aloha.host[219] x 166.21m
attr unit m
par Aloha.host[219] y 103.942m
attr unit m
par Aloha.host[219] txrate 10000Bps
attr unit Bps
par Aloha.host[220] typename "\"Host\""
par Aloha.host[220] arrrate 10
par Aloha.host[220] retransrate 10
par Aloha.host[220] packet_size 1B
attr unit B
par Aloha.host[220] x 125.796m
attr unit m
par Aloha.host[220] y 0.0110701m
attr unit m
par Aloha.host[220] txrate 10000Bps
attr unit Bps
par Aloha.host[221] typename "\"Host\""
par Aloha.host[221] arrrate 10
par Aloha.host[221] retransrate 10
par Aloha.host[221] packet_size 1B
attr unit B
par Aloha.host[221] x 174.53m
attr unit m
par Aloha.host[221] y 62.372m
attr unit m
par Aloha.host[221] txrate 10000Bps
attr unit Bps
par Aloha.host[222] typename "\"Host\""
par Aloha.host[222] arrrate 10
par Aloha.host[222] retransrate 10
par Aloha.host[222] packet_size 1B
attr unit B
par Aloha.host[222] x 54.7084m
attr unit m
par Aloha.host[222] y 85.0903m
attr unit m
par Aloha.host[222] txrate 10000Bps
attr unit Bps
par Aloha.host[223] typename "\"Host\""
par Aloha.host[223] arrrate 10
par Aloha.host[223] retransrate 10
par Aloha.host[223] packet_size 1B
attr unit B
par Aloha.host[223] x 159.609m
attr unit m
par Aloha.host[223] y 177.068m
attr unit m
par Aloha.host[223] txrate 10000Bps
attr unit Bps
par Aloha.host[224] typename "\"Host\""
par Aloha.host[224] arrrate 10
par Aloha.host[224] retransrate 10
par Aloha.host[224] packet_size 1B
attr unit B
par Aloha.host[224] x 37.1272m
attr unit m
par Aloha.host[224] y 135.976m
attr unit m
par Aloha.host[224] txrate 10000Bps
attr unit Bps
par Aloha.host[225] typename "\"Host\""
par Aloha.host[225] arrrate 10
par Aloha.host[225] retransrate 10
par Aloha.host[225] packet_size 1B
attr unit B
par Aloha.host[225] x 190.558m
attr unit m
par Aloha.host[225] y 91.226m
attr unit m
par Aloha.host[225] txrate 10000Bps
attr unit Bps
par Aloha.host[226] typename "\"Host\""
par Aloha.host[226] arrrate 10
par Aloha.host[226] retransrate 10
par Aloha.host[226] packet_size 1B
attr unit B
par Aloha.host[226] x 137.498m
attr unit m
par Aloha.host[226] y 96.6817m
attr unit m
par Aloha.host[226] txrate 10000Bps
attr unit Bps
par Aloha.host[227] typename "\"Host\""
par Aloha.host[227] arrrate 10
par Aloha.host[227] retransrate 10
par Aloha.host[227] packet_size 1B
attr unit B
par Aloha.host[227] x 43.1015m
attr unit m
par Aloha.host[227] y 157.748m
attr unit m
par Aloha.host[227] txrate 10000Bps
attr unit Bps
par Aloha.host[228] typename "\"Host\""
par Aloha.host[228] arrrate 10
par Aloha.host[228] retransrate 10
par Aloha.host[228] packet_size 1B
attr unit B
par Aloha.host[228] x 189.474m
attr unit m
par Aloha.host[228] y 45.8884m
attr unit m
par Aloha.host[228] txrate 10000Bps
attr unit Bps
par Aloha.host[229] typename "\"Host\""
par Aloha.host[229] arrrate 10
par Aloha.host[229] retransrate 10
par Aloha.host[229] packet_size 1B
attr unit B
par Aloha.host[229] x 146.171m
attr unit m
par Aloha.host[229] y 176.06m
attr unit m
par Aloha.host[229] txrate 10000Bps
attr unit Bps
par Aloha.host[230] typename "\"Host\""
par Aloha.host[230] arrrate 10
par Aloha.host[230] retransrate 10
par Aloha.host[230] packet_size 1B
attr unit B
par Aloha.host[230] x 50.7883m
attr unit m
par Aloha.host[230] y 62.7385m
attr unit m
par Aloha.host[230] txrate 10000Bps
attr unit Bps
par Aloha.host[231] typename "\"Host\""
par Aloha.host[231] arrrate 10
par Aloha.host[231] retransrate 10
par Aloha.host[231] packet_size 1B
attr unit B
par Aloha.host[231] x 42.6624m
attr unit m
par Aloha.host[231] y 191.49m
attr unit m
par Aloha.host[231] txrate 10000Bps
attr unit Bps
par Aloha.host[232] typename "\"Host\""
par Aloha.host[232] arrrate 10
par Aloha.host[232] retransrate 10
par Aloha.host[232] packet_size 1B
attr unit B
par Aloha.host[232] x 103.64m
attr unit m
par Aloha.host[232] y 94.3503m
attr unit m
par Aloha.host[232] txrate 10000Bps
attr unit Bps
par Aloha.host[233] typename "\"Host\""
par Aloha.host[233] arrrate 10
par Aloha.host[233] retransrate 10
par Aloha.host[233] packet_size 1B
attr unit B
par Aloha.host[233] x 5.13254m
attr unit m
par Aloha.host[233] y 142.317m
attr unit m
par Aloha.host[233] txrate 10000Bps
attr unit Bps
par Aloha.host[234] typename "\"Host\""
par Aloha.host[234] arrrate 10
par Aloha.host[234] retransrate 10
par Aloha.host[234] packet_size 1B
attr unit B
par Aloha.host[234] x 41.494m
attr unit m
par Aloha.host[234] y 30.7389m
attr unit m
par Aloha.host[234] txrate 10000Bps
attr unit Bps
par Aloha.host[235] typename "\"Host\""
par Aloha.host[235] arrrate 10
par Aloha.host[235] retransrate 10
par Aloha.host[235] packet_size 1B
attr unit B
par Aloha.host[235] x 84.9371m
attr unit m
par Aloha.host[235] y 146.088m
attr unit m
par Aloha.host[235] txrate 10000Bps
attr unit Bps
par Aloha.host[236] typename "\"Host\""
par Aloha.host[236] arrrate 10
par Aloha.host[236] retransrate 10
par Aloha.host[236] packet_size 1B
attr unit B
par Aloha.host[236] x 74.834m
attr unit m
par Aloha.host[236] y 129.253m
attr unit m
par Aloha.host[236] txrate 10000Bps
attr unit Bps
par Aloha.host[237] typename "\"Host\""
par Aloha.host[237] arrrate 10
par Aloha.host[237] retransrate 10
par Aloha.host[237] packet_size 1B
attr unit B
par Aloha.host[237] x 92.7151m
attr unit m
par Aloha.host[237] y 42.9761m
attr unit m
par Aloha.host[237] txrate 10000Bps
attr unit Bps
par Aloha.host[238] typename "\"Host\""
par Aloha.host[238] arrrate 10
par Aloha.host[238] retransrate 10
par Aloha.host[238] packet_size 1B
attr unit B
par Aloha.host[238] x 55.5257m
attr unit m
par Aloha.host[238] y 37.2916m
attr unit m
par Aloha.host[238] txrate 10000Bps
attr unit Bps
par Aloha.host[239] typename "\"Host\""
par Aloha.host[239] arrrate 10
par Aloha.host[239] retransrate 10
par Aloha.host[239] packet_size 1B
attr unit B
par Aloha.host[239] x 117.357m
attr unit m
par Aloha.host[239] y 161.516m
attr unit m
par Aloha.host[239] txrate 10000Bps
attr unit Bps
par Aloha.host[240] typename "\"Host\""
par Aloha.host[240] arrrate 10
par Aloha.host[240] retransrate 10
par Aloha.host[240] packet_size 1B
attr unit B
par Aloha.host[240] x 172.771m
attr unit m
par Aloha.host[240] y 149.416m
attr unit m
par Aloha.host[240] txrate 10000Bps
attr unit Bps
par Aloha.host[241] typename "\"Host\""
par Aloha.host[241] arrrate 10
par Aloha.host[241] retransrate 10
par Aloha.host[241] packet_size 1B
attr unit B
par Aloha.host[241] x 23.5064m
attr unit m
par Aloha.host[241] y 134.969m
attr unit m
par Aloha.host[241] txrate 10000Bps
attr unit Bps
par Aloha.host[242] typename "\"Host\""
par Aloha.host[242] arrrate 10
par Aloha.host[242] retransrate 10
par Aloha.host[242] packet_size 1B
attr unit B
par Aloha.host[242] x 103.476m
attr unit m
par Aloha.host[242] y 55.3788m
attr unit m
par Aloha.host[242] txrate 10000Bps
attr unit Bps
par Aloha.host[243] typename "\"Host\""
par Aloha.host[243] arrrate 10
par Aloha.host[243] retransrate 10
par Aloha.host[243] packet_size 1B
attr unit B
par Aloha.host[243] x 26.4136m
attr unit m
par Aloha.host[243] y 34.9818m
attr unit m
par Aloha.host[243] txrate 10000Bps
attr unit Bps
par Aloha.host[244] typename "\"Host\""
par Aloha.host[244] arrrate 10
par Aloha.host[244] retransrate 10
par Aloha.host[244] packet_size 1B
attr unit B
par Aloha.host[244] x 143.372m
attr unit m
par Aloha.host[244] y 140.895m
attr unit m
par Aloha.host[244] txrate 10000Bps
attr unit Bps
par Aloha.host[245] typename "\"Host\""
par Aloha.host[245] arrrate 10
par Aloha.host[245] retransrate 10
par Aloha.host[245] packet_size 1B
attr unit B
par Aloha.host[245] x 79.2119m
attr unit m
par Aloha.host[245] y 92.63m
attr unit m
par Aloha.host[245] txrate 10000Bps
attr unit Bps
par Aloha.host[246] typename "\"Host\""
par Aloha.host[246] arrrate 10
par Aloha.host[246] retransrate 10
par Aloha.host[246] packet_size 1B
attr unit B
par Aloha.host[246] x 113.084m
attr unit m
par Aloha.host[246] y 168.086m
attr unit m
par Aloha.host[246] txrate 10000Bps
attr unit Bps
par Aloha.host[247] typename "\"Host\""
par Aloha.host[247] arrrate 10
par Aloha.host[247] retransrate 10
par Aloha.host[247] packet_size 1B
attr unit B
par Aloha.host[247] x 36.656m
attr unit m
par Aloha.host[247] y 40.9732m
attr unit m
par Aloha.host[247] txrate 10000Bps
attr unit Bps
par Aloha.host[248] typename "\"Host\""
par Aloha.host[248] arrrate 10
par Aloha.host[248] retransrate 10
par Aloha.host[248] packet_size 1B
attr unit B
par Aloha.host[248] x 28.9696m
attr unit m
par Aloha.host[248] y 32.9918m
attr unit m
par Aloha.host[248] txrate 10000Bps
attr unit Bps
par Aloha.host[249] typename "\"Host\""
par Aloha.host[249] arrrate 10
par Aloha.host[249] retransrate 10
par Aloha.host[249] packet_size 1B
attr unit B
par Aloha.host[249] x 97.6113m
attr unit m
par Aloha.host[249] y 24.9666m
attr unit m
par Aloha.host[249] txrate 10000Bps
attr unit Bps
par Aloha.host[250] typename "\"Host\""
par Aloha.host[250] arrrate 10
par Aloha.host[250] retransrate 10
par Aloha.host[250] packet_size 1B
attr unit B
par Aloha.host[250] x 71.1225m
attr unit m
par Aloha.host[250] y 144.416m
attr unit m
par Aloha.host[250] txrate 10000Bps
attr unit Bps
par Aloha.host[251] typename "\"Host\""
par Aloha.host[251] arrrate 10
par Aloha.host[251] retransrate 10
par Aloha.host[251] packet_size 1B
attr unit B
par Aloha.host[251] x 188.086m
attr unit m
par Aloha.host[251] y 6.09059m
attr unit m
par Aloha.host[251] txrate 10000Bps
attr unit Bps
par Aloha.host[252] typename "\"Host\""
par Aloha.host[252] arrrate 10
par Aloha.host[252] retransrate 10
par Aloha.host[252] packet_size 1B
attr unit B
par Aloha.host[252] x 153.065m
attr unit m
par Aloha.host[252] y 149.399m
attr unit m
par Aloha.host[252] txrate 10000Bps
attr unit Bps
par Aloha.host[253] typename "\"Host\""
par Aloha.host[253] arrrate 10
par Aloha.host[253] retransrate 10
par Aloha.host[253] packet_size 1B
attr unit B
par Aloha.host[253] x 149.733m
attr unit m
par Aloha.host[253] y 18.5192m
attr unit m
par Aloha.host[253] txrate 10000Bps
attr unit Bps
par Aloha.host[254] typename "\"Host\""
par Aloha.host[254] arrrate 10
par Aloha.host[254] retransrate 10
par Aloha.host[254] packet_size 1B
attr unit B
par Aloha.host[254] x 180.744m
attr unit m
par Aloha.host[254] y 43.4901m
attr unit m
par Aloha.host[254] txrate 10000Bps
attr unit Bps
par Aloha.host[255] typename "\"Host\""
par Aloha.host[255] arrrate 10
par Aloha.host[255] retransrate 10
par Aloha.host[255] packet_size 1B
attr unit B
par Aloha.host[255] x 16.6845m
attr unit m
par Aloha.host[255] y 149.851m
attr unit m
par Aloha.host[255] txrate 10000Bps
attr unit Bps
par Aloha.host[256] typename "\"Host\""
par Aloha.host[256] arrrate 10
par Aloha.host[256] retransrate 10
par Aloha.host[256] packet_size 1B
attr unit B
par Aloha.host[256] x 110.438m
attr unit m
par Aloha.host[256] y 146.339m
attr unit m
par Aloha.host[256] txrate 10000Bps
attr unit Bps
par Aloha.host[257] typename "\"Host\""
par Aloha.host[257] arrrate 10
par Aloha.host[257] retransrate 10
par Aloha.host[257] packet_size 1B
attr unit B
par Aloha.host[257] x 116.895m
attr unit m
par Aloha.host[257] y 9.12293m
attr unit m
par Aloha.host[257] txrate 10000Bps
attr unit Bps
par Aloha.host[258] typename "\"Host\""
par Aloha.host[258] arrrate 10
par Aloha.host[258] retransrate 10
par Aloha.host[258] packet_size 1B
attr unit B
par Aloha.host[258] x 192.387m
attr unit m
par Aloha.host[258] y 41.8314m
attr unit m
par Aloha.host[258] txrate 10000Bps
attr unit Bps
par Aloha.host[259] typename "\"Host\""
par Aloha.host[259] arrrate 10
par Aloha.host[259] retransrate 10
par Aloha.host[259] packet_size 1B
attr unit B
par Aloha.host[259] x 58.4295m
attr unit m
par Aloha.host[259] y 57.383m
attr unit m
par Aloha.host[259] txrate 10000Bps
attr unit Bps
par Aloha.host[260] typename "\"Host\""
par Aloha.host[260] arrrate 10
par Aloha.host[260] retransrate 10
par Aloha.host[260] packet_size 1B
attr unit B
par Aloha.host[260] x 48.1658m
attr unit m
par Aloha.host[260] y 135.453m
attr unit m
par Aloha.host[260] txrate 10000Bps
attr unit Bps
par Aloha.host[261] typename "\"Host\""
par Aloha.host[261] arrrate 10
par Aloha.host[261] retransrate 10
par Aloha.host[261] packet_size 1B
attr unit B
par Aloha.host[261] x 20.0588m
attr unit m
par Aloha.host[261] y 12.6077m
attr unit m
par Aloha.host[261] txrate 10000Bps
attr unit Bps
par Aloha.host[262] typename "\"Host\""
par Aloha.host[262] arrrate 10
par Aloha.host[262] retransrate 10
par Aloha.host[262] packet_size 1B
attr unit B
par Aloha.host[262] x 3.28593m
attr unit m
par Aloha.host[262] y 111.13m
attr unit m
par Aloha.host[262] txrate 10000Bps
attr unit Bps
par Aloha.host[263] typename "\"Host\""
par Aloha.host[263] arrrate 10
par Aloha.host[263] retransrate 10
par Aloha.host[263] packet_size 1B
attr unit B
par Aloha.host[263] x 185.906m
attr unit m
par Aloha.host[263] y 1.84801m
attr unit m
par Aloha.host[263] txrate 10000Bps
attr unit Bps
par Aloha.host[264] typename "\"Host\""
par Aloha.host[264] arrrate 10
par Aloha.host[264] retransrate 10
par Aloha.host[264] packet_size 1B
attr unit B
par Aloha.host[264] x 133.983m
attr unit m
par Aloha.host[264] y 166.608m
attr unit m
par Aloha.host[264] txrate 10000Bps
attr unit Bps
par Aloha.host[265] typename "\"Host\""
par Aloha.host[265] arrrate 10
par Aloha.host[265] retransrate 10
par Aloha.host[265] packet_size 1B
attr unit B
par Aloha.host[265] x 157.031m
attr unit m
par Aloha.host[265] y 196.866m
attr unit m
par Aloha.host[265] txrate 10000Bps
attr unit Bps
par Aloha.host[266] typename "\"Host\""
par Aloha.host[266] arrrate 10
par Aloha.host[266] retransrate 10
par Aloha.host[266] packet_size 1B
attr unit B
par Aloha.host[266] x 56.346m
attr unit m
par Aloha.host[266] y 140.699m
attr unit m
par Aloha.host[266] txrate 10000Bps
attr unit Bps
par Aloha.host[267] typename "\"Host\""
par Aloha.host[267] arrrate 10
par Aloha.host[267] retransrate 10
par Aloha.host[267] packet_size 1B
attr unit B
par Aloha.host[267] x 117.282m
attr unit m
par Aloha.host[267] y 36.3262m
attr unit m
par Aloha.host[267] txrate 10000Bps
attr unit Bps
par Aloha.host[268] typename "\"Host\""
par Aloha.host[268] arrrate 10
par Aloha.host[268] retransrate 10
par Aloha.host[268] packet_size 1B
attr unit B
par Aloha.host[268] x 12.7911m
attr unit m
par Aloha.host[268] y 102.479m
attr unit m
par Aloha.host[268] txrate 10000Bps
attr unit Bps
par Aloha.host[269] typename "\"Host\""
par Aloha.host[269] arrrate 10
par Aloha.host[269] retransrate 10
par Aloha.host[269] packet_size 1B
attr unit B
par Aloha.host[269] x 97.1255m
attr unit m
par Aloha.host[269] y 116.089m
attr unit m
par Aloha.host[269] txrate 10000Bps
attr unit Bps
par Aloha.host[270] typename "\"Host\""
par Aloha.host[270] arrrate 10
par Aloha.host[270] retransrate 10
par Aloha.host[270] packet_size 1B
attr unit B
par Aloha.host[270] x 195.499m
attr unit m
par Aloha.host[270] y 157.508m
attr unit m
par Aloha.host[270] txrate 10000Bps
attr unit Bps
par Aloha.host[271] typename "\"Host\""
par Aloha.host[271] arrrate 10
par Aloha.host[271] retransrate 10
par Aloha.host[271] packet_size 1B
attr unit B
par Aloha.host[271] x 175.301m
attr unit m
par Aloha.host[271] y 121.295m
attr unit m
par Aloha.host[271] txrate 10000Bps
attr unit Bps
par Aloha.host[272] typename "\"Host\""
par Aloha.host[272] arrrate 10
par Aloha.host[272] retransrate 10
par Aloha.host[272] packet_size 1B
attr unit B
par Aloha.host[272] x 67.6318m
attr unit m
par Aloha.host[272] y 43.6806m
attr unit m
par Aloha.host[272] txrate 10000Bps
attr unit Bps
par Aloha.host[273] typename "\"Host\""
par Aloha.host[273] arrrate 10
par Aloha.host[273] retransrate 10
par Aloha.host[273] packet_size 1B
attr unit B
par Aloha.host[273] x 192.314m
attr unit m
par Aloha.host[273] y 91.0338m
attr unit m
par Aloha.host[273] txrate 10000Bps
attr unit Bps
par Aloha.host[274] typename "\"Host\""
par Aloha.host[274] arrrate 10
par Aloha.host[274] retransrate 10
par Aloha.host[274] packet_size 1B
attr unit B
par Aloha.host[274] x 46.3403m
attr unit m
par Aloha.host[274] y 175.774m
attr unit m
par Aloha.host[274] txrate 10000Bps
attr unit Bps
par Aloha.host[275] typename "\"Host\""
par Aloha.host[275] arrrate 10
par Aloha.host[275] retransrate 10
par Aloha.host[275] packet_size 1B
attr unit B
par Aloha.host[275] x 189.864m
attr unit m
par Aloha.host[275] y 98.4536m
attr unit m
par Aloha.host[275] txrate 10000Bps
attr unit Bps
par Aloha.host[276] typename "\"Host\""
par Aloha.host[276] arrrate 10
par Aloha.host[276] retransrate 10
par Aloha.host[276] packet_size 1B
attr unit B
par Aloha.host[276] x 188.276m
attr unit m
par Aloha.host[276] y 143.112m
attr unit m
par Aloha.host[276] txrate 10000Bps
attr unit Bps
par Aloha.host[277] typename "\"Host\""
par Aloha.host[277] arrrate 10
par Aloha.host[277] retransrate 10
[...]
par Aloha.host[931] y 67.9513m
attr unit m
par Aloha.host[931] txrate 10000Bps
attr unit Bps
par Aloha.host[932] typename "\"Host\""
par Aloha.host[932] arrrate 10
par Aloha.host[932] retransrate 10
par Aloha.host[932] packet_size 1B
attr unit B
par Aloha.host[932] x 66.6144m
attr unit m
par Aloha.host[932] y 145.496m
attr unit m
par Aloha.host[932] txrate 10000Bps
attr unit Bps
par Aloha.host[933] typename "\"Host\""
par Aloha.host[933] arrrate 10
par Aloha.host[933] retransrate 10
par Aloha.host[933] packet_size 1B
attr unit B
par Aloha.host[933] x 19.9466m
attr unit m
par Aloha.host[933] y 116.919m
attr unit m
par Aloha.host[933] txrate 10000Bps
attr unit Bps
par Aloha.host[934] typename "\"Host\""
par Aloha.host[934] arrrate 10
par Aloha.host[934] retransrate 10
par Aloha.host[934] packet_size 1B
attr unit B
par Aloha.host[934] x 95.1178m
attr unit m
par Aloha.host[934] y 151.331m
attr unit m
par Aloha.host[934] txrate 10000Bps
attr unit Bps
par Aloha.host[935] typename "\"Host\""
par Aloha.host[935] arrrate 10
par Aloha.host[935] retransrate 10
par Aloha.host[935] packet_size 1B
attr unit B
par Aloha.host[935] x 164.004m
attr unit m
par Aloha.host[935] y 50.2928m
attr unit m
par Aloha.host[935] txrate 10000Bps
attr unit Bps
par Aloha.host[936] typename "\"Host\""
par Aloha.host[936] arrrate 10
par Aloha.host[936] retransrate 10
par Aloha.host[936] packet_size 1B
attr unit B
par Aloha.host[936] x 59.6375m
attr unit m
par Aloha.host[936] y 186.459m
attr unit m
par Aloha.host[936] txrate 10000Bps
attr unit Bps
par Aloha.host[937] typename "\"Host\""
par Aloha.host[937] arrrate 10
par Aloha.host[937] retransrate 10
par Aloha.host[937] packet_size 1B
attr unit B
par Aloha.host[937] x 30.187m
attr unit m
par Aloha.host[937] y 198.6m
attr unit m
par Aloha.host[937] txrate 10000Bps
attr unit Bps
par Aloha.host[938] typename "\"Host\""
par Aloha.host[938] arrrate 10
par Aloha.host[938] retransrate 10
par Aloha.host[938] packet_size 1B
attr unit B
par Aloha.host[938] x 66.0534m
attr unit m
par Aloha.host[938] y 32.9065m
attr unit m
par Aloha.host[938] txrate 10000Bps
attr unit Bps
par Aloha.host[939] typename "\"Host\""
par Aloha.host[939] arrrate 10
par Aloha.host[939] retransrate 10
par Aloha.host[939] packet_size 1B
attr unit B
par Aloha.host[939] x 162.776m
attr unit m
par Aloha.host[939] y 102.581m
attr unit m
par Aloha.host[939] txrate 10000Bps
attr unit Bps
par Aloha.host[940] typename "\"Host\""
par Aloha.host[940] arrrate 10
par Aloha.host[940] retransrate 10
par Aloha.host[940] packet_size 1B
attr unit B
par Aloha.host[940] x 28.0768m
attr unit m
par Aloha.host[940] y 172.695m
attr unit m
par Aloha.host[940] txrate 10000Bps
attr unit Bps
par Aloha.host[941] typename "\"Host\""
par Aloha.host[941] arrrate 10
par Aloha.host[941] retransrate 10
par Aloha.host[941] packet_size 1B
attr unit B
par Aloha.host[941] x 45.4725m
attr unit m
par Aloha.host[941] y 69.5396m
attr unit m
par Aloha.host[941] txrate 10000Bps
attr unit Bps
par Aloha.host[942] typename "\"Host\""
par Aloha.host[942] arrrate 10
par Aloha.host[942] retransrate 10
par Aloha.host[942] packet_size 1B
attr unit B
par Aloha.host[942] x 13.7704m
attr unit m
par Aloha.host[942] y 48.5275m
attr unit m
par Aloha.host[942] txrate 10000Bps
attr unit Bps
par Aloha.host[943] typename "\"Host\""
par Aloha.host[943] arrrate 10
par Aloha.host[943] retransrate 10
par Aloha.host[943] packet_size 1B
attr unit B
par Aloha.host[943] x 141.142m
attr unit m
par Aloha.host[943] y 146.213m
attr unit m
par Aloha.host[943] txrate 10000Bps
attr unit Bps
par Aloha.host[944] typename "\"Host\""
par Aloha.host[944] arrrate 10
par Aloha.host[944] retransrate 10
par Aloha.host[944] packet_size 1B
attr unit B
par Aloha.host[944] x 79.0466m
attr unit m
par Aloha.host[944] y 195.504m
attr unit m
par Aloha.host[944] txrate 10000Bps
attr unit Bps
par Aloha.host[945] typename "\"Host\""
par Aloha.host[945] arrrate 10
par Aloha.host[945] retransrate 10
par Aloha.host[945] packet_size 1B
attr unit B
par Aloha.host[945] x 62.168m
attr unit m
par Aloha.host[945] y 100.75m
attr unit m
par Aloha.host[945] txrate 10000Bps
attr unit Bps
par Aloha.host[946] typename "\"Host\""
par Aloha.host[946] arrrate 10
par Aloha.host[946] retransrate 10
par Aloha.host[946] packet_size 1B
attr unit B
par Aloha.host[946] x 143.725m
attr unit m
par Aloha.host[946] y 78.4861m
attr unit m
par Aloha.host[946] txrate 10000Bps
attr unit Bps
par Aloha.host[947] typename "\"Host\""
par Aloha.host[947] arrrate 10
par Aloha.host[947] retransrate 10
par Aloha.host[947] packet_size 1B
attr unit B
par Aloha.host[947] x 67.1955m
attr unit m
par Aloha.host[947] y 78.3866m
attr unit m
par Aloha.host[947] txrate 10000Bps
attr unit Bps
par Aloha.host[948] typename "\"Host\""
par Aloha.host[948] arrrate 10
par Aloha.host[948] retransrate 10
par Aloha.host[948] packet_size 1B
attr unit B
par Aloha.host[948] x 145.554m
attr unit m
par Aloha.host[948] y 158.901m
attr unit m
par Aloha.host[948] txrate 10000Bps
attr unit Bps
par Aloha.host[949] typename "\"Host\""
par Aloha.host[949] arrrate 10
par Aloha.host[949] retransrate 10
par Aloha.host[949] packet_size 1B
attr unit B
par Aloha.host[949] x 163.04m
attr unit m
par Aloha.host[949] y 141.212m
attr unit m
par Aloha.host[949] txrate 10000Bps
attr unit Bps
par Aloha.host[950] typename "\"Host\""
par Aloha.host[950] arrrate 10
par Aloha.host[950] retransrate 10
par Aloha.host[950] packet_size 1B
attr unit B
par Aloha.host[950] x 43.5326m
attr unit m
par Aloha.host[950] y 63.7835m
attr unit m
par Aloha.host[950] txrate 10000Bps
attr unit Bps
par Aloha.host[951] typename "\"Host\""
par Aloha.host[951] arrrate 10
par Aloha.host[951] retransrate 10
par Aloha.host[951] packet_size 1B
attr unit B
par Aloha.host[951] x 194.764m
attr unit m
par Aloha.host[951] y 194.918m
attr unit m
par Aloha.host[951] txrate 10000Bps
attr unit Bps
par Aloha.host[952] typename "\"Host\""
par Aloha.host[952] arrrate 10
par Aloha.host[952] retransrate 10
par Aloha.host[952] packet_size 1B
attr unit B
par Aloha.host[952] x 32.4716m
attr unit m
par Aloha.host[952] y 178.316m
attr unit m
par Aloha.host[952] txrate 10000Bps
attr unit Bps
par Aloha.host[953] typename "\"Host\""
par Aloha.host[953] arrrate 10
par Aloha.host[953] retransrate 10
par Aloha.host[953] packet_size 1B
attr unit B
par Aloha.host[953] x 58.1682m
attr unit m
par Aloha.host[953] y 140.186m
attr unit m
par Aloha.host[953] txrate 10000Bps
attr unit Bps
par Aloha.host[954] typename "\"Host\""
par Aloha.host[954] arrrate 10
par Aloha.host[954] retransrate 10
par Aloha.host[954] packet_size 1B
attr unit B
par Aloha.host[954] x 35.9591m
attr unit m
par Aloha.host[954] y 88.1554m
attr unit m
par Aloha.host[954] txrate 10000Bps
attr unit Bps
par Aloha.host[955] typename "\"Host\""
par Aloha.host[955] arrrate 10
par Aloha.host[955] retransrate 10
par Aloha.host[955] packet_size 1B
attr unit B
par Aloha.host[955] x 69.1011m
attr unit m
par Aloha.host[955] y 41.4592m
attr unit m
par Aloha.host[955] txrate 10000Bps
attr unit Bps
par Aloha.host[956] typename "\"Host\""
par Aloha.host[956] arrrate 10
par Aloha.host[956] retransrate 10
par Aloha.host[956] packet_size 1B
attr unit B
par Aloha.host[956] x 96.0122m
attr unit m
par Aloha.host[956] y 132.993m
attr unit m
par Aloha.host[956] txrate 10000Bps
attr unit Bps
par Aloha.host[957] typename "\"Host\""
par Aloha.host[957] arrrate 10
par Aloha.host[957] retransrate 10
par Aloha.host[957] packet_size 1B
attr unit B
par Aloha.host[957] x 104.435m
attr unit m
par Aloha.host[957] y 150.778m
attr unit m
par Aloha.host[957] txrate 10000Bps
attr unit Bps
par Aloha.host[958] typename "\"Host\""
par Aloha.host[958] arrrate 10
par Aloha.host[958] retransrate 10
par Aloha.host[958] packet_size 1B
attr unit B
par Aloha.host[958] x 170.721m
attr unit m
par Aloha.host[958] y 120.816m
attr unit m
par Aloha.host[958] txrate 10000Bps
attr unit Bps
par Aloha.host[959] typename "\"Host\""
par Aloha.host[959] arrrate 10
par Aloha.host[959] retransrate 10
par Aloha.host[959] packet_size 1B
attr unit B
par Aloha.host[959] x 177.89m
attr unit m
par Aloha.host[959] y 99.1234m
attr unit m
par Aloha.host[959] txrate 10000Bps
attr unit Bps
par Aloha.host[960] typename "\"Host\""
par Aloha.host[960] arrrate 10
par Aloha.host[960] retransrate 10
par Aloha.host[960] packet_size 1B
attr unit B
par Aloha.host[960] x 44.0208m
attr unit m
par Aloha.host[960] y 23.6083m
attr unit m
par Aloha.host[960] txrate 10000Bps
attr unit Bps
par Aloha.host[961] typename "\"Host\""
par Aloha.host[961] arrrate 10
par Aloha.host[961] retransrate 10
par Aloha.host[961] packet_size 1B
attr unit B
par Aloha.host[961] x 124.579m
attr unit m
par Aloha.host[961] y 156.946m
attr unit m
par Aloha.host[961] txrate 10000Bps
attr unit Bps
par Aloha.host[962] typename "\"Host\""
par Aloha.host[962] arrrate 10
par Aloha.host[962] retransrate 10
par Aloha.host[962] packet_size 1B
attr unit B
par Aloha.host[962] x 22.2992m
attr unit m
par Aloha.host[962] y 98.3183m
attr unit m
par Aloha.host[962] txrate 10000Bps
attr unit Bps
par Aloha.host[963] typename "\"Host\""
par Aloha.host[963] arrrate 10
par Aloha.host[963] retransrate 10
par Aloha.host[963] packet_size 1B
attr unit B
par Aloha.host[963] x 91.794m
attr unit m
par Aloha.host[963] y 170.823m
attr unit m
par Aloha.host[963] txrate 10000Bps
attr unit Bps
par Aloha.host[964] typename "\"Host\""
par Aloha.host[964] arrrate 10
par Aloha.host[964] retransrate 10
par Aloha.host[964] packet_size 1B
attr unit B
par Aloha.host[964] x 64.4667m
attr unit m
par Aloha.host[964] y 26.9637m
attr unit m
par Aloha.host[964] txrate 10000Bps
attr unit Bps
par Aloha.host[965] typename "\"Host\""
par Aloha.host[965] arrrate 10
par Aloha.host[965] retransrate 10
par Aloha.host[965] packet_size 1B
attr unit B
par Aloha.host[965] x 63.3001m
attr unit m
par Aloha.host[965] y 193.018m
attr unit m
par Aloha.host[965] txrate 10000Bps
attr unit Bps
par Aloha.host[966] typename "\"Host\""
par Aloha.host[966] arrrate 10
par Aloha.host[966] retransrate 10
par Aloha.host[966] packet_size 1B
attr unit B
par Aloha.host[966] x 96.5168m
attr unit m
par Aloha.host[966] y 98.2402m
attr unit m
par Aloha.host[966] txrate 10000Bps
attr unit Bps
par Aloha.host[967] typename "\"Host\""
par Aloha.host[967] arrrate 10
par Aloha.host[967] retransrate 10
par Aloha.host[967] packet_size 1B
attr unit B
par Aloha.host[967] x 145.966m
attr unit m
par Aloha.host[967] y 14.4701m
attr unit m
par Aloha.host[967] txrate 10000Bps
attr unit Bps
par Aloha.host[968] typename "\"Host\""
par Aloha.host[968] arrrate 10
par Aloha.host[968] retransrate 10
par Aloha.host[968] packet_size 1B
attr unit B
par Aloha.host[968] x 13.8365m
attr unit m
par Aloha.host[968] y 56.0227m
attr unit m
par Aloha.host[968] txrate 10000Bps
attr unit Bps
par Aloha.host[969] typename "\"Host\""
par Aloha.host[969] arrrate 10
par Aloha.host[969] retransrate 10
par Aloha.host[969] packet_size 1B
attr unit B
par Aloha.host[969] x 175.835m
attr unit m
par Aloha.host[969] y 180.516m
attr unit m
par Aloha.host[969] txrate 10000Bps
attr unit Bps
par Aloha.host[970] typename "\"Host\""
par Aloha.host[970] arrrate 10
par Aloha.host[970] retransrate 10
par Aloha.host[970] packet_size 1B
attr unit B
par Aloha.host[970] x 146.963m
attr unit m
par Aloha.host[970] y 66.8036m
attr unit m
par Aloha.host[970] txrate 10000Bps
attr unit Bps
par Aloha.host[971] typename "\"Host\""
par Aloha.host[971] arrrate 10
par Aloha.host[971] retransrate 10
par Aloha.host[971] packet_size 1B
attr unit B
par Aloha.host[971] x 35.2999m
attr unit m
par Aloha.host[971] y 194.016m
attr unit m
par Aloha.host[971] txrate 10000Bps
attr unit Bps
par Aloha.host[972] typename "\"Host\""
par Aloha.host[972] arrrate 10
par Aloha.host[972] retransrate 10
par Aloha.host[972] packet_size 1B
attr unit B
par Aloha.host[972] x 187.832m
attr unit m
par Aloha.host[972] y 88.8243m
attr unit m
par Aloha.host[972] txrate 10000Bps
attr unit Bps
par Aloha.host[973] typename "\"Host\""
par Aloha.host[973] arrrate 10
par Aloha.host[973] retransrate 10
par Aloha.host[973] packet_size 1B
attr unit B
par Aloha.host[973] x 101.262m
attr unit m
par Aloha.host[973] y 73.4092m
attr unit m
par Aloha.host[973] txrate 10000Bps
attr unit Bps
par Aloha.host[974] typename "\"Host\""
par Aloha.host[974] arrrate 10
par Aloha.host[974] retransrate 10
par Aloha.host[974] packet_size 1B
attr unit B
par Aloha.host[974] x 199.962m
attr unit m
par Aloha.host[974] y 157.954m
attr unit m
par Aloha.host[974] txrate 10000Bps
attr unit Bps
par Aloha.host[975] typename "\"Host\""
par Aloha.host[975] arrrate 10
par Aloha.host[975] retransrate 10
par Aloha.host[975] packet_size 1B
attr unit B
par Aloha.host[975] x 39.4519m
attr unit m
par Aloha.host[975] y 93.4239m
attr unit m
par Aloha.host[975] txrate 10000Bps
attr unit Bps
par Aloha.host[976] typename "\"Host\""
par Aloha.host[976] arrrate 10
par Aloha.host[976] retransrate 10
par Aloha.host[976] packet_size 1B
attr unit B
par Aloha.host[976] x 106.982m
attr unit m
par Aloha.host[976] y 15.1133m
attr unit m
par Aloha.host[976] txrate 10000Bps
attr unit Bps
par Aloha.host[977] typename "\"Host\""
par Aloha.host[977] arrrate 10
par Aloha.host[977] retransrate 10
par Aloha.host[977] packet_size 1B
attr unit B
par Aloha.host[977] x 58.0496m
attr unit m
par Aloha.host[977] y 165.768m
attr unit m
par Aloha.host[977] txrate 10000Bps
attr unit Bps
par Aloha.host[978] typename "\"Host\""
par Aloha.host[978] arrrate 10
par Aloha.host[978] retransrate 10
par Aloha.host[978] packet_size 1B
attr unit B
par Aloha.host[978] x 60.8347m
attr unit m
par Aloha.host[978] y 158.092m
attr unit m
par Aloha.host[978] txrate 10000Bps
attr unit Bps
par Aloha.host[979] typename "\"Host\""
par Aloha.host[979] arrrate 10
par Aloha.host[979] retransrate 10
par Aloha.host[979] packet_size 1B
attr unit B
par Aloha.host[979] x 118.213m
attr unit m
par Aloha.host[979] y 102.999m
attr unit m
par Aloha.host[979] txrate 10000Bps
attr unit Bps
par Aloha.host[980] typename "\"Host\""
par Aloha.host[980] arrrate 10
par Aloha.host[980] retransrate 10
par Aloha.host[980] packet_size 1B
attr unit B
par Aloha.host[980] x 184.344m
attr unit m
par Aloha.host[980] y 1.93666m
attr unit m
par Aloha.host[980] txrate 10000Bps
attr unit Bps
par Aloha.host[981] typename "\"Host\""
par Aloha.host[981] arrrate 10
par Aloha.host[981] retransrate 10
par Aloha.host[981] packet_size 1B
attr unit B
par Aloha.host[981] x 161.053m
attr unit m
par Aloha.host[981] y 27.2714m
attr unit m
par Aloha.host[981] txrate 10000Bps
attr unit Bps
par Aloha.host[982] typename "\"Host\""
par Aloha.host[982] arrrate 10
par Aloha.host[982] retransrate 10
par Aloha.host[982] packet_size 1B
attr unit B
par Aloha.host[982] x 144.788m
attr unit m
par Aloha.host[982] y 142.398m
attr unit m
par Aloha.host[982] txrate 10000Bps
attr unit Bps
par Aloha.host[983] typename "\"Host\""
par Aloha.host[983] arrrate 10
par Aloha.host[983] retransrate 10
par Aloha.host[983] packet_size 1B
attr unit B
par Aloha.host[983] x 111.835m
attr unit m
par Aloha.host[983] y 118.172m
attr unit m
par Aloha.host[983] txrate 10000Bps
attr unit Bps
par Aloha.host[984] typename "\"Host\""
par Aloha.host[984] arrrate 10
par Aloha.host[984] retransrate 10
par Aloha.host[984] packet_size 1B
attr unit B
par Aloha.host[984] x 184.46m
attr unit m
par Aloha.host[984] y 140.009m
attr unit m
par Aloha.host[984] txrate 10000Bps
attr unit Bps
par Aloha.host[985] typename "\"Host\""
par Aloha.host[985] arrrate 10
par Aloha.host[985] retransrate 10
par Aloha.host[985] packet_size 1B
attr unit B
par Aloha.host[985] x 98.4723m
attr unit m
par Aloha.host[985] y 72.1869m
attr unit m
par Aloha.host[985] txrate 10000Bps
attr unit Bps
par Aloha.host[986] typename "\"Host\""
par Aloha.host[986] arrrate 10
par Aloha.host[986] retransrate 10
par Aloha.host[986] packet_size 1B
attr unit B
par Aloha.host[986] x 174.766m
attr unit m
par Aloha.host[986] y 125.875m
attr unit m
par Aloha.host[986] txrate 10000Bps
attr unit Bps
par Aloha.host[987] typename "\"Host\""
par Aloha.host[987] arrrate 10
par Aloha.host[987] retransrate 10
par Aloha.host[987] packet_size 1B
attr unit B
par Aloha.host[987] x 166.796m
attr unit m
par Aloha.host[987] y 86.9653m
attr unit m
par Aloha.host[987] txrate 10000Bps
attr unit Bps
par Aloha.host[988] typename "\"Host\""
par Aloha.host[988] arrrate 10
par Aloha.host[988] retransrate 10
par Aloha.host[988] packet_size 1B
attr unit B
par Aloha.host[988] x 42.7671m
attr unit m
par Aloha.host[988] y 82.7602m
attr unit m
par Aloha.host[988] txrate 10000Bps
attr unit Bps
par Aloha.host[989] typename "\"Host\""
par Aloha.host[989] arrrate 10
par Aloha.host[989] retransrate 10
par Aloha.host[989] packet_size 1B
attr unit B
par Aloha.host[989] x 154.245m
attr unit m
par Aloha.host[989] y 83.0065m
attr unit m
par Aloha.host[989] txrate 10000Bps
attr unit Bps
par Aloha.host[990] typename "\"Host\""
par Aloha.host[990] arrrate 10
par Aloha.host[990] retransrate 10
par Aloha.host[990] packet_size 1B
attr unit B
par Aloha.host[990] x 2.43423m
attr unit m
par Aloha.host[990] y 6.41112m
attr unit m
par Aloha.host[990] txrate 10000Bps
attr unit Bps
par Aloha.host[991] typename "\"Host\""
par Aloha.host[991] arrrate 10
par Aloha.host[991] retransrate 10
par Aloha.host[991] packet_size 1B
attr unit B
par Aloha.host[991] x 64.5659m
attr unit m
par Aloha.host[991] y 12.199m
attr unit m
par Aloha.host[991] txrate 10000Bps
attr unit Bps
par Aloha.host[992] typename "\"Host\""
par Aloha.host[992] arrrate 10
par Aloha.host[992] retransrate 10
par Aloha.host[992] packet_size 1B
attr unit B
par Aloha.host[992] x 45.9135m
attr unit m
par Aloha.host[992] y 169.864m
attr unit m
par Aloha.host[992] txrate 10000Bps
attr unit Bps
par Aloha.host[993] typename "\"Host\""
par Aloha.host[993] arrrate 10
par Aloha.host[993] retransrate 10
par Aloha.host[993] packet_size 1B
attr unit B
par Aloha.host[993] x 101.373m
attr unit m
par Aloha.host[993] y 139.105m
attr unit m
par Aloha.host[993] txrate 10000Bps
attr unit Bps
par Aloha.host[994] typename "\"Host\""
par Aloha.host[994] arrrate 10
par Aloha.host[994] retransrate 10
par Aloha.host[994] packet_size 1B
attr unit B
par Aloha.host[994] x 147.371m
attr unit m
par Aloha.host[994] y 46.0823m
attr unit m
par Aloha.host[994] txrate 10000Bps
attr unit Bps
par Aloha.host[995] typename "\"Host\""
par Aloha.host[995] arrrate 10
par Aloha.host[995] retransrate 10
par Aloha.host[995] packet_size 1B
attr unit B
par Aloha.host[995] x 19.5353m
attr unit m
par Aloha.host[995] y 23.6253m
attr unit m
par Aloha.host[995] txrate 10000Bps
attr unit Bps
par Aloha.host[996] typename "\"Host\""
par Aloha.host[996] arrrate 10
par Aloha.host[996] retransrate 10
par Aloha.host[996] packet_size 1B
attr unit B
par Aloha.host[996] x 102.984m
attr unit m
par Aloha.host[996] y 8.14205m
attr unit m
par Aloha.host[996] txrate 10000Bps
attr unit Bps
par Aloha.host[997] typename "\"Host\""
par Aloha.host[997] arrrate 10
par Aloha.host[997] retransrate 10
par Aloha.host[997] packet_size 1B
attr unit B
par Aloha.host[997] x 187.682m
attr unit m
par Aloha.host[997] y 95.9414m
attr unit m
par Aloha.host[997] txrate 10000Bps
attr unit Bps
par Aloha.host[998] typename "\"Host\""
par Aloha.host[998] arrrate 10
par Aloha.host[998] retransrate 10
par Aloha.host[998] packet_size 1B
attr unit B
par Aloha.host[998] x 45.7293m
attr unit m
par Aloha.host[998] y 117.593m
attr unit m
par Aloha.host[998] txrate 10000Bps
attr unit Bps
par Aloha.host[999] typename "\"Host\""
par Aloha.host[999] arrrate 10
par Aloha.host[999] retransrate 10
par Aloha.host[999] packet_size 1B
attr unit B
par Aloha.host[999] x 135.428m
attr unit m
par Aloha.host[999] y 179.591m
attr unit m
par Aloha.host[999] txrate 10000Bps
attr unit Bps
par Aloha.server typename "\"Server\""
par Aloha.server x 118.576m
attr unit m
par Aloha.server y 184.054m
attr unit m
scalar Aloha.server prob_succ 0.36627972080176
scalar Aloha.server uti 36.837429300766
par Aloha typename "\"Aloha\""
par Aloha numHosts 1000

